# generated using pymatgen
data_CdH188C268(N2O7)2
_symmetry_space_group_name_H-M   'P 1'
_cell_length_a   66.58626838
_cell_length_b   66.94310363
_cell_length_c   32.88334440
_cell_angle_alpha   90.24535967
_cell_angle_beta   90.02340458
_cell_angle_gamma   93.15641056
_symmetry_Int_Tables_number   1
_chemical_formula_structural   CdH188C268(N2O7)2
_chemical_formula_sum   'Cd1 H188 C268 N4 O14'
_cell_volume   146353.48854991
_cell_formula_units_Z   1
loop_
 _symmetry_equiv_pos_site_id
 _symmetry_equiv_pos_as_xyz
  1  'x, y, z'
loop_
 _atom_site_type_symbol
 _atom_site_label
 _atom_site_symmetry_multiplicity
 _atom_site_fract_x
 _atom_site_fract_y
 _atom_site_fract_z
 _atom_site_occupancy
  Cd  Cd0  1  0.50534434  0.50347795  0.50120793  1
  H  H1  1  0.02655715  0.49321367  0.97699314  1
  H  H2  1  0.00910045  0.52731113  0.01980614  1
  H  H3  1  0.98525500  0.51471555  0.97714286  1
  H  H4  1  0.00297813  0.48114657  0.01943478  1
  H  H5  1  0.51676104  0.02505327  0.97583694  1
  H  H6  1  0.48320851  0.00474352  0.01955902  1
  H  H7  1  0.49537011  0.98257328  0.97658671  1
  H  H8  1  0.52841072  1.00308154  0.02085408  1
  H  H9  1  0.57691289  0.48976647  0.56719948  1
  H  H10  1  0.54123755  0.50131363  0.56341465  1
  H  H11  1  0.54029457  0.49583782  0.43818031  1
  H  H12  1  0.57532453  0.48299409  0.43673897  1
  H  H13  1  0.51229187  0.42480186  0.54370416  1
  H  H14  1  0.52124848  0.46186116  0.54379178  1
  H  H15  1  0.47507954  0.47271396  0.46431981  1
  H  H16  1  0.46389264  0.43641017  0.46135302  1
  H  H17  1  0.43417929  0.51923134  0.43387611  1
  H  H18  1  0.46965153  0.50733169  0.43780836  1
  H  H19  1  0.47046086  0.51283599  0.56284198  1
  H  H20  1  0.43571230  0.52602947  0.56419078  1
  H  H21  1  0.49848051  0.58165899  0.45692535  1
  H  H22  1  0.49029877  0.54434692  0.45694731  1
  H  H23  1  0.53681365  0.53460217  0.53652595  1
  H  H24  1  0.54740370  0.57114651  0.53888053  1
  H  H25  1  0.13086252  0.59409037  0.24664829  1
  H  H26  1  0.12430641  0.54927200  0.26963969  1
  H  H27  1  0.13972259  0.53573188  0.32326824  1
  H  H28  1  0.16276735  0.53711186  0.38140882  1
  H  H29  1  0.17561826  0.60030527  0.36122220  1
  H  H30  1  0.15279182  0.59896236  0.30159033  1
  H  H31  1  0.18812704  0.54009064  0.41695702  1
  H  H32  1  0.16615905  0.54816787  0.44128118  1
  H  H33  1  0.15677578  0.57709008  0.52887156  1
  H  H34  1  0.15482612  0.55301443  0.50689988  1
  H  H35  1  0.15674097  0.57450487  0.47556841  1
  H  H36  1  0.21565389  0.54836906  0.40371174  1
  H  H37  1  0.22835786  0.53258790  0.43683500  1
  H  H38  1  0.23936830  0.55620718  0.42261546  1
  H  H39  1  0.22398992  0.59039523  0.59113521  1
  H  H40  1  0.24259911  0.59546829  0.55333429  1
  H  H41  1  0.24147182  0.57247257  0.57957726  1
  H  H42  1  0.25634051  0.56228532  0.52588775  1
  H  H43  1  0.25427960  0.55587014  0.47332006  1
  H  H44  1  0.28165264  0.55669406  0.49358072  1
  H  H45  1  0.31728667  0.55979414  0.49808839  1
  H  H46  1  0.31583603  0.62431766  0.48140132  1
  H  H47  1  0.27871446  0.62047671  0.47720973  1
  H  H48  1  0.35076339  0.60663719  0.48905186  1
  H  H49  1  0.34169702  0.56169855  0.50987029  1
  H  H50  1  0.19711659  0.59974241  0.57927298  1
  H  H51  1  0.17270163  0.59013033  0.56632724  1
  H  H52  1  0.17568926  0.60846874  0.62202215  1
  H  H53  1  0.15145220  0.61575600  0.67543302  1
  H  H54  1  0.15022173  0.55333647  0.71234692  1
  H  H55  1  0.17428472  0.54660283  0.65822029  1
  H  H56  1  0.12898207  0.60386274  0.73443221  1
  H  H57  1  0.13475186  0.55934186  0.75534811  1
  H  H58  1  0.41625785  0.12010448  0.24527227  1
  H  H59  1  0.46116444  0.11821828  0.26957770  1
  H  H60  1  0.47474905  0.13505809  0.32346904  1
  H  H61  1  0.47341859  0.15800605  0.38153086  1
  H  H62  1  0.41007875  0.16441737  0.35983037  1
  H  H63  1  0.41138078  0.14171290  0.30027113  1
  H  H64  1  0.47053144  0.18332283  0.41699299  1
  H  H65  1  0.46223785  0.16069734  0.44122032  1
  H  H66  1  0.43337480  0.14835482  0.52841451  1
  H  H67  1  0.45754231  0.14909702  0.50652572  1
  H  H68  1  0.43589109  0.14857572  0.47513154  1
  H  H69  1  0.46186665  0.20978327  0.40335626  1
  H  H70  1  0.47784080  0.22415281  0.43655271  1
  H  H71  1  0.45415426  0.23263487  0.42212003  1
  H  H72  1  0.41969762  0.21406900  0.59035595  1
  H  H73  1  0.41492721  0.23200935  0.55244237  1
  H  H74  1  0.43796525  0.23322992  0.57918467  1
  H  H75  1  0.44811404  0.24911734  0.52532043  1
  H  H76  1  0.45437916  0.24767611  0.47274890  1
  H  H77  1  0.45381237  0.27509542  0.49332951  1
  H  H78  1  0.45087677  0.31024525  0.49778140  1
  H  H79  1  0.38604130  0.30202341  0.47983878  1
  H  H80  1  0.38970269  0.26549467  0.47584266  1
  H  H81  1  0.40393133  0.33865519  0.48815341  1
  H  H82  1  0.44931282  0.33434568  0.50806080  1
  H  H83  1  0.41085858  0.18611001  0.57941620  1
  H  H84  1  0.42015966  0.16284264  0.56551650  1
  H  H85  1  0.40199054  0.16331925  0.62158997  1
  H  H86  1  0.39469331  0.13843476  0.67475149  1
  H  H87  1  0.45749585  0.14386202  0.71180612  1
  H  H88  1  0.46424080  0.16850368  0.65791223  1
  H  H89  1  0.40662405  0.11723556  0.73342334  1
  H  H90  1  0.45146224  0.12745720  0.75467844  1
  H  H91  1  0.87731062  0.44394355  0.74725706  1
  H  H92  1  0.88747437  0.39945358  0.73826493  1
  H  H93  1  0.86913056  0.38125988  0.68212185  1
  H  H94  1  0.84653599  0.38090105  0.62319830  1
  H  H95  1  0.83812188  0.44379659  0.63974007  1
  H  H96  1  0.86061292  0.44465957  0.69890165  1
  H  H97  1  0.82013427  0.38297810  0.58402352  1
  H  H98  1  0.84291251  0.39136727  0.55993036  1
  H  H99  1  0.85496543  0.42064666  0.47244504  1
  H  H100  1  0.85448768  0.39657001  0.49392301  1
  H  H101  1  0.85495551  0.41804635  0.52572115  1
  H  H102  1  0.79317025  0.39186632  0.59765787  1
  H  H103  1  0.77868700  0.37597454  0.56437901  1
  H  H104  1  0.77034242  0.39967801  0.57854020  1
  H  H105  1  0.78913775  0.43373390  0.41100579  1
  H  H106  1  0.77124723  0.43867600  0.44907583  1
  H  H107  1  0.76969571  0.41579300  0.42203737  1
  H  H108  1  0.75374647  0.40523690  0.47536145  1
  H  H109  1  0.75513176  0.39823252  0.52743144  1
  H  H110  1  0.72670190  0.40082386  0.50727118  1
  H  H111  1  0.69117726  0.40743948  0.50135224  1
  H  H112  1  0.70567159  0.47061933  0.52164853  1
  H  H113  1  0.74204299  0.46389084  0.52551865  1
  H  H114  1  0.67200330  0.46014990  0.51313690  1
  H  H115  1  0.65918769  0.41525624  0.49743782  1
  H  H116  1  0.81667773  0.44226102  0.42206663  1
  H  H117  1  0.84026063  0.43333973  0.43519340  1
  H  H118  1  0.83771798  0.45164671  0.38180431  1
  H  H119  1  0.86290228  0.46064361  0.32965977  1
  H  H120  1  0.85991436  0.39929703  0.28646398  1
  H  H121  1  0.83530407  0.39024553  0.34069929  1
  H  H122  1  0.88240199  0.45353799  0.27421262  1
  H  H123  1  0.88231267  0.41044146  0.23903418  1
  H  H124  1  0.56571411  0.88093245  0.74807465  1
  H  H125  1  0.61050678  0.89556259  0.73919064  1
  H  H126  1  0.62867773  0.87896804  0.68347446  1
  H  H127  1  0.62896379  0.85631999  0.62471373  1
  H  H128  1  0.56565878  0.84146324  0.64041539  1
  H  H129  1  0.56488338  0.86396386  0.69943824  1
  H  H130  1  0.62672076  0.82967772  0.58536263  1
  H  H131  1  0.61845448  0.85142048  0.56119462  1
  H  H132  1  0.58911724  0.86027418  0.47351635  1
  H  H133  1  0.61332580  0.86236769  0.49524567  1
  H  H134  1  0.59173868  0.86046999  0.52680471  1
  H  H135  1  0.61782529  0.80187187  0.59848347  1
  H  H136  1  0.63365164  0.78899924  0.56531172  1
  H  H137  1  0.60972036  0.77834680  0.57918172  1
  H  H138  1  0.57582367  0.79323306  0.41128012  1
  H  H139  1  0.57092333  0.77492845  0.44929429  1
  H  H140  1  0.59387626  0.77586939  0.42235586  1
  H  H141  1  0.60453742  0.76116167  0.47562429  1
  H  H142  1  0.61165950  0.76336527  0.52768726  1
  H  H143  1  0.60915384  0.73456217  0.50804601  1
  H  H144  1  0.60259930  0.69841948  0.50256266  1
  H  H145  1  0.53908034  0.70580999  0.52214974  1
  H  H146  1  0.54575973  0.74273560  0.52590577  1
  H  H147  1  0.54954904  0.67356438  0.51389941  1
  H  H148  1  0.59463785  0.66531319  0.49917536  1
  H  H149  1  0.56745802  0.81994096  0.42209030  1
  H  H150  1  0.57641212  0.84431467  0.43606577  1
  H  H151  1  0.55802067  0.84060635  0.38249783  1
  H  H152  1  0.54905162  0.86471530  0.33053390  1
  H  H153  1  0.61055885  0.86792070  0.28716643  1
  H  H154  1  0.61958539  0.84435901  0.34117328  1
  H  H155  1  0.55606543  0.88480373  0.27536791  1
  H  H156  1  0.59914335  0.88940561  0.23953697  1
  H  H157  1  0.06514178  0.51164721  0.86130371  1
  H  H158  1  0.08937987  0.52853263  0.81360510  1
  H  H159  1  0.07937502  0.58517854  0.86997465  1
  H  H160  1  0.05506594  0.56824543  0.91776834  1
  H  H161  1  0.44227378  0.04953758  0.92054565  1
  H  H162  1  0.42556472  0.07204430  0.87283837  1
  H  H163  1  0.48149977  0.08283006  0.80940439  1
  H  H164  1  0.49816729  0.06038157  0.85705765  1
  H  H165  1  0.97490158  0.45457068  0.13467153  1
  H  H166  1  0.95112425  0.43660881  0.18189586  1
  H  H167  1  0.90285360  0.47032723  0.13558942  1
  H  H168  1  0.92678493  0.48826467  0.08855205  1
  H  H169  1  0.53813037  0.97443706  0.15823955  1
  H  H170  1  0.55580353  0.95269439  0.20589390  1
  H  H171  1  0.55730415  0.90709224  0.11330796  1
  H  H172  1  0.53956940  0.92887903  0.06598935  1
  H  H173  1  0.45817192  0.06832949  0.06064930  1
  H  H174  1  0.44013404  0.09019461  0.10793936  1
  H  H175  1  0.47129498  0.06535343  0.20908874  1
  H  H176  1  0.48931123  0.04347707  0.16153263  1
  H  H177  1  0.05988264  0.56297456  0.07518831  1
  H  H178  1  0.08361826  0.58109540  0.12276943  1
  H  H179  1  0.08560542  0.52795146  0.19581004  1
  H  H180  1  0.06180040  0.50987533  0.14799348  1
  H  H181  1  0.92951351  0.46562922  0.93537460  1
  H  H182  1  0.90535165  0.44879014  0.88730486  1
  H  H183  1  0.94992279  0.45379670  0.79275714  1
  H  H184  1  0.97410230  0.47065729  0.84112814  1
  H  H185  1  0.55916236  0.94156150  0.93785736  1
  H  H186  1  0.57582163  0.91905953  0.88999445  1
  H  H187  1  0.54142461  0.94188016  0.79156399  1
  H  H188  1  0.52477542  0.96436645  0.83961071  1
  C  C189  1  0.02252772  0.51855294  0.01843145  1
  C  C190  1  0.02747917  0.50950505  0.98041998  1
  C  C191  1  0.98415005  0.49841523  0.98028734  1
  C  C192  1  0.98921833  0.48939976  0.01810462  1
  C  C193  1  0.49155904  0.01931562  0.01802253  1
  C  C194  1  0.50044581  0.02522899  0.97988098  1
  C  C195  1  0.51167787  0.98227044  0.98074516  1
  C  C196  1  0.52059765  0.98823181  0.01897823  1
  C  C197  1  0.56884958  0.49008745  0.53830496  1
  C  C198  1  0.54978753  0.49740025  0.53601089  1
  C  C199  1  0.54910333  0.49419124  0.46588011  1
  C  C200  1  0.56794305  0.48649859  0.46532715  1
  C  C201  1  0.57770525  0.48271096  0.50259749  1
  C  C202  1  0.48541986  0.42788543  0.50699442  1
  C  C203  1  0.50300253  0.43507914  0.52754516  1
  C  C204  1  0.50839527  0.45548412  0.52654324  1
  C  C205  1  0.48263605  0.46166709  0.48219038  1
  C  C206  1  0.47617990  0.44173920  0.48133199  1
  C  C207  1  0.44219945  0.51908255  0.46282331  1
  C  C208  1  0.46111787  0.51134911  0.46516506  1
  C  C209  1  0.46174271  0.51460001  0.53503928  1
  C  C210  1  0.44303463  0.52270336  0.53545988  1
  C  C211  1  0.43331194  0.52685881  0.49828041  1
  C  C212  1  0.52523717  0.57891916  0.49373214  1
  C  C213  1  0.50778479  0.57146494  0.47331057  1
  C  C214  1  0.50293278  0.55101991  0.47436364  1
  C  C215  1  0.52895981  0.54548189  0.51882708  1
  C  C216  1  0.53504338  0.56547895  0.51939580  1
  C  C217  1  0.12521456  0.57847913  0.24576550  1
  C  C218  1  0.13090881  0.56442325  0.27375283  1
  C  C219  1  0.14442890  0.56704656  0.30760265  1
  C  C220  1  0.14759751  0.54989423  0.33140891  1
  C  C221  1  0.16033706  0.55073633  0.36449294  1
  C  C222  1  0.17015025  0.56899133  0.37528522  1
  C  C223  1  0.16766010  0.58626294  0.35236020  1
  C  C224  1  0.15485654  0.58538887  0.31894167  1
  C  C225  1  0.18193196  0.55251493  0.43404655  1
  C  C226  1  0.19425899  0.55819225  0.47056123  1
  C  C227  1  0.21534019  0.55760316  0.46739044  1
  C  C228  1  0.22712395  0.56589407  0.49950857  1
  C  C229  1  0.21830789  0.57493399  0.53356775  1
  C  C230  1  0.19720074  0.57594192  0.53498027  1
  C  C231  1  0.18487142  0.56735153  0.50391261  1
  C  C232  1  0.16231549  0.56805039  0.50391563  1
  C  C233  1  0.22507393  0.54831730  0.43106696  1
  C  C234  1  0.23210575  0.58377148  0.56594892  1
  C  C235  1  0.24948531  0.56633699  0.49672439  1
  C  C236  1  0.27771753  0.58851351  0.48648470  1
  C  C237  1  0.28888965  0.57167289  0.49172889  1
  C  C238  1  0.30962198  0.57361502  0.49397254  1
  C  C239  1  0.32032037  0.59241042  0.49042929  1
  C  C240  1  0.30847482  0.60941778  0.48427572  1
  C  C241  1  0.28756796  0.60742290  0.48208564  1
  C  C242  1  0.34189953  0.59254526  0.49226085  1
  C  C243  1  0.35121855  0.57464854  0.49953833  1
  C  C244  1  0.18824162  0.58591815  0.57098068  1
  C  C245  1  0.17578340  0.57685212  0.63603607  1
  C  C246  1  0.16969278  0.59639468  0.64143888  1
  C  C247  1  0.15624992  0.60050048  0.67213696  1
  C  C248  1  0.14857363  0.58524543  0.69893572  1
  C  C249  1  0.15561586  0.56573206  0.69313279  1
  C  C250  1  0.16925732  0.56171670  0.66260972  1
  C  C251  1  0.13412176  0.58879359  0.73037486  1
  C  C252  1  0.12721257  0.57351307  0.75596397  1
  C  C253  1  0.43192427  0.11609783  0.24481808  1
  C  C254  1  0.44596723  0.12326690  0.27324770  1
  C  C255  1  0.44335793  0.13655403  0.30703416  1
  C  C256  1  0.46055653  0.14149053  0.33126208  1
  C  C257  1  0.45974404  0.15417323  0.36431364  1
  C  C258  1  0.44146741  0.16215924  0.37467495  1
  C  C259  1  0.42415048  0.15787800  0.35133530  1
  C  C260  1  0.42499930  0.14514399  0.31794613  1
  C  C261  1  0.45793628  0.17589916  0.43379634  1
  C  C262  1  0.45213466  0.18766333  0.47017846  1
  C  C263  1  0.45262800  0.20869700  0.46693558  1
  C  C264  1  0.44424844  0.21960395  0.49889535  1
  C  C265  1  0.43537872  0.20987620  0.53309843  1
  C  C266  1  0.43453270  0.18876035  0.53475648  1
  C  C267  1  0.44307628  0.17738927  0.50361441  1
  C  C268  1  0.44241197  0.15486867  0.50353458  1
  C  C269  1  0.46199352  0.21925145  0.43066373  1
  C  C270  1  0.42653686  0.22275119  0.56533029  1
  C  C271  1  0.44387803  0.24184796  0.49614380  1
  C  C272  1  0.42181823  0.26781053  0.48578255  1
  C  C273  1  0.43879335  0.28072269  0.49119868  1
  C  C274  1  0.43694456  0.30116979  0.49334442  1
  C  C275  1  0.41811893  0.30985511  0.48948550  1
  C  C276  1  0.40097987  0.29626910  0.48302189  1
  C  C277  1  0.40287826  0.27566350  0.48096098  1
  C  C278  1  0.41805274  0.33131675  0.49158239  1
  C  C279  1  0.43606595  0.34248044  0.49918711  1
  C  C280  1  0.42461692  0.17868901  0.57072694  1
  C  C281  1  0.43381731  0.16676570  0.63551961  1
  C  C282  1  0.41416797  0.15862160  0.64092089  1
  C  C283  1  0.41006040  0.14478832  0.67152060  1
  C  C284  1  0.42540852  0.13871389  0.69828177  1
  C  C285  1  0.44501474  0.14785624  0.69255660  1
  C  C286  1  0.44904086  0.16185822  0.66212378  1
  C  C287  1  0.42182190  0.12388985  0.72956895  1
  C  C288  1  0.43714316  0.11851921  0.75521236  1
  C  C289  1  0.88582546  0.43062195  0.75246840  1
  C  C290  1  0.88099278  0.41346170  0.72986756  1
  C  C291  1  0.86725099  0.41302217  0.69580084  1
  C  C292  1  0.86258507  0.39516739  0.67318188  1
  C  C293  1  0.84994062  0.39489396  0.63957237  1
  C  C294  1  0.84143276  0.41250728  0.62718588  1
  C  C295  1  0.84508740  0.43019512  0.64932132  1
  C  C296  1  0.85784286  0.43051085  0.68280541  1
  C  C297  1  0.82762494  0.39561257  0.56760317  1
  C  C298  1  0.81578843  0.40153840  0.53127522  1
  C  C299  1  0.79460572  0.40075319  0.53405172  1
  C  C300  1  0.78360605  0.40846302  0.50161756  1
  C  C301  1  0.79323995  0.41792107  0.46798916  1
  C  C302  1  0.81444747  0.41895603  0.46668339  1
  C  C303  1  0.82597707  0.41066772  0.49778653  1
  C  C304  1  0.84859732  0.41156489  0.49735220  1
  C  C305  1  0.78376108  0.39170002  0.57028253  1
  C  C306  1  0.78036997  0.42697093  0.43604891  1
  C  C307  1  0.76129534  0.40878777  0.50457212  1
  C  C308  1  0.73650526  0.43212184  0.51562075  1
  C  C309  1  0.72223539  0.41621264  0.50955149  1
  C  C310  1  0.70206190  0.41993430  0.50686568  1
  C  C311  1  0.69558810  0.43969156  0.51113157  1
  C  C312  1  0.71049941  0.45541891  0.51823631  1
  C  C313  1  0.73069874  0.45173082  0.52050342  1
  C  C314  1  0.67501088  0.44441271  0.50887620  1
  C  C315  1  0.65819740  0.43135278  0.50194865  1
  C  C316  1  0.82435238  0.42869986  0.43055862  1
  C  C317  1  0.83575694  0.42014312  0.36541875  1
  C  C318  1  0.84300123  0.44008029  0.36165693  1
  C  C319  1  0.85680769  0.44522504  0.33168605  1
  C  C320  1  0.86339056  0.43090894  0.30344819  1
  C  C321  1  0.85521943  0.41086693  0.30727419  1
  C  C322  1  0.84135112  0.40565738  0.33760038  1
  C  C323  1  0.87771034  0.43767069  0.27300902  1
  C  C324  1  0.88611651  0.42645665  0.24245749  1
  C  C325  1  0.57915352  0.89085718  0.75312733  1
  C  C326  1  0.59635649  0.88766457  0.73070702  1
  C  C327  1  0.59671945  0.87387333  0.69673707  1
  C  C328  1  0.61465584  0.87098443  0.67438576  1
  C  C329  1  0.61488780  0.85831072  0.64084018  1
  C  C330  1  0.59714652  0.84797050  0.62820213  1
  C  C331  1  0.57937290  0.84984630  0.65011688  1
  C  C332  1  0.57910452  0.86262600  0.68353445  1
  C  C333  1  0.61406555  0.83578072  0.56878602  1
  C  C334  1  0.60809227  0.82332242  0.53228118  1
  C  C335  1  0.60888116  0.80232837  0.53480848  1
  C  C336  1  0.60118200  0.79053217  0.50213562  1
  C  C337  1  0.59179303  0.79912012  0.46835842  1
  C  C338  1  0.59087807  0.82012900  0.46705369  1
  C  C339  1  0.59909312  0.83246726  0.49856530  1
  C  C340  1  0.59823726  0.85487910  0.49841898  1
  C  C341  1  0.61788878  0.79249175  0.57108595  1
  C  C342  1  0.58265959  0.78528702  0.43632105  1
  C  C343  1  0.60095660  0.76826744  0.50486533  1
  C  C344  1  0.57769210  0.74082198  0.51608375  1
  C  C345  1  0.59370439  0.72838315  0.51030798  1
  C  C346  1  0.59001760  0.70786373  0.50789031  1
  C  C347  1  0.57018722  0.69920169  0.51210019  1
  C  C348  1  0.55435539  0.71230241  0.51891584  1
  C  C349  1  0.55801517  0.73281912  0.52101960  1
  C  C350  1  0.56540129  0.67820449  0.50989594  1
  C  C351  1  0.57839440  0.66279913  0.50284338  1
  C  C352  1  0.58109125  0.82903832  0.43092617  1
  C  C353  1  0.58962787  0.84179019  0.36609208  1
  C  C354  1  0.56965679  0.84702799  0.36240568  1
  C  C355  1  0.56452061  0.86024510  0.33249143  1
  C  C356  1  0.57885113  0.86824903  0.30420320  1
  C  C357  1  0.59893024  0.86211789  0.30797639  1
  C  C358  1  0.60413745  0.84885279  0.33824148  1
  C  C359  1  0.57199332  0.88182415  0.27385692  1
  C  C360  1  0.58305370  0.89141346  0.24316855  1
  C  C361  1  0.41618222  0.53824449  0.49737238  1
  C  C362  1  0.40195193  0.54923207  0.49697070  1
  C  C363  1  0.38649669  0.56114829  0.49655312  1
  C  C364  1  0.37129095  0.57108102  0.49637704  1
  C  C365  1  0.47601927  0.40864844  0.50906309  1
  C  C366  1  0.46406331  0.39400688  0.50560169  1
  C  C367  1  0.45108256  0.37818252  0.50172846  1
  C  C368  1  0.43953927  0.36293334  0.49828681  1
  C  C369  1  0.59495004  0.47163606  0.50295608  1
  C  C370  1  0.60904962  0.46057776  0.50211188  1
  C  C371  1  0.62434317  0.44855508  0.50113061  1
  C  C372  1  0.63946830  0.43868997  0.50075872  1
  C  C373  1  0.53412110  0.59822498  0.49073480  1
  C  C374  1  0.54626265  0.61269724  0.49360366  1
  C  C375  1  0.55949568  0.62825579  0.49680707  1
  C  C376  1  0.57068837  0.64355520  0.49966555  1
  C  C377  1  0.03575185  0.52025575  0.94863066  1
  C  C378  1  0.04533642  0.52896831  0.92139211  1
  C  C379  1  0.05821449  0.53876439  0.89276377  1
  C  C380  1  0.06821949  0.52779755  0.86265650  1
  C  C381  1  0.08156904  0.53719971  0.83614850  1
  C  C382  1  0.08568534  0.55827766  0.83743356  1
  C  C383  1  0.07591478  0.56912264  0.86785441  1
  C  C384  1  0.06253284  0.55971936  0.89448598  1
  C  C385  1  0.09931907  0.56782082  0.80955647  1
  C  C386  1  0.11162430  0.57415548  0.78404265  1
  C  C387  1  0.48977838  0.03274408  0.94829005  1
  C  C388  1  0.48116472  0.04144992  0.92102135  1
  C  C389  1  0.47142987  0.05323554  0.89228833  1
  C  C390  1  0.45070362  0.05678290  0.89578304  1
  C  C391  1  0.44139252  0.06916115  0.86910745  1
  C  C392  1  0.45203715  0.07863440  0.83666737  1
  C  C393  1  0.47288446  0.07523981  0.83349447  1
  C  C394  1  0.48219890  0.06288876  0.86005997  1
  C  C395  1  0.44264587  0.09132937  0.80877465  1
  C  C396  1  0.43642714  0.10295270  0.78325615  1
  C  C397  1  0.97668168  0.48709518  0.05106507  1
  C  C398  1  0.96566381  0.48174619  0.07945548  1
  C  C399  1  0.95251463  0.47282719  0.10870396  1
  C  C400  1  0.95911203  0.45804394  0.13561957  1
  C  C401  1  0.94593933  0.44813293  0.16175240  1
  C  C402  1  0.92527611  0.45246271  0.16299238  1
  C  C403  1  0.91873007  0.46717089  0.13560307  1
  C  C404  1  0.93192537  0.47708041  0.10954343  1
  C  C405  1  0.91171315  0.44273530  0.19037531  1
  C  C406  1  0.89967404  0.43509048  0.21493898  1
  C  C407  1  0.52323158  0.97603891  0.05183414  1
  C  C408  1  0.52858545  0.96560386  0.08009030  1
  C  C409  1  0.53731297  0.95308665  0.10889903  1
  C  C410  1  0.54216094  0.95954245  0.14891182  1
  C  C411  1  0.55191012  0.94743160  0.17535376  1
  C  C412  1  0.55731849  0.92793800  0.16378598  1
  C  C413  1  0.55276667  0.92172027  0.12324665  1
  C  C414  1  0.54299996  0.93378536  0.09697793  1
  C  C415  1  0.56671688  0.91522152  0.19122694  1
  C  C416  1  0.57423991  0.90398852  0.21583550  1
  C  C417  1  0.48945018  0.03156545  0.05122651  1
  C  C418  1  0.48457348  0.04196148  0.08009457  1
  C  C419  1  0.47525596  0.05465797  0.10788981  1
  C  C420  1  0.46102379  0.06800896  0.09326472  1
  C  C421  1  0.45100011  0.07999749  0.11935133  1
  C  C422  1  0.45448463  0.07946759  0.16188739  1
  C  C423  1  0.46862436  0.06596969  0.17644766  1
  C  C424  1  0.47867489  0.05393236  0.15023508  1
  C  C425  1  0.44435647  0.09217123  0.18829289  1
  C  C426  1  0.43774697  0.10339692  0.21422687  1
  C  C427  1  0.03514625  0.52049740  0.05146261  1
  C  C428  1  0.04627862  0.52515493  0.08018886  1
  C  C429  1  0.05950422  0.53506368  0.10821258  1
  C  C430  1  0.06573605  0.55548798  0.10168982  1
  C  C431  1  0.07877649  0.56550217  0.12792197  1
  C  C432  1  0.08639291  0.55582959  0.16247910  1
  C  C433  1  0.07990347  0.53545992  0.16920716  1
  C  C434  1  0.06681428  0.52541786  0.14285475  1
  C  C435  1  0.09991505  0.56637537  0.18889073  1
  C  C436  1  0.11185265  0.57274119  0.21511789  1
  C  C437  1  0.97633848  0.48772881  0.94765360  1
  C  C438  1  0.96703086  0.47906801  0.91981767  1
  C  C439  1  0.95369350  0.46917629  0.89190364  1
  C  C440  1  0.93389177  0.46275051  0.90404373  1
  C  C441  1  0.92052373  0.45330985  0.87736783  1
  C  C442  1  0.92601947  0.44935198  0.83653117  1
  C  C443  1  0.94565768  0.45615881  0.82430805  1
  C  C444  1  0.95906210  0.46561335  0.85103159  1
  C  C445  1  0.91243882  0.43987048  0.80825306  1
  C  C446  1  0.90052503  0.43288633  0.78250079  1
  C  C447  1  0.52230735  0.97519985  0.94845724  1
  C  C448  1  0.53084907  0.96665435  0.92073760  1
  C  C449  1  0.54082442  0.95476328  0.89232337  1
  C  C450  1  0.55555363  0.94166292  0.90553269  1
  C  C451  1  0.56491832  0.92927806  0.87884496  1
  C  C452  1  0.56055792  0.92928116  0.83663840  1
  C  C453  1  0.54554506  0.94214433  0.82362553  1
  C  C454  1  0.53615508  0.95454217  0.85033338  1
  C  C455  1  0.57008964  0.91664665  0.80863191  1
  C  C456  1  0.57701769  0.90542457  0.78299189  1
  N  N457  1  0.54021684  0.49934434  0.50062193  1
  N  N458  1  0.49795013  0.46863568  0.50576710  1
  N  N459  1  0.47066286  0.50915279  0.50052558  1
  N  N460  1  0.51370330  0.53824342  0.49541484  1
  O  O461  1  0.51221408  0.50645063  0.56862852  1
  O  O462  1  0.49919267  0.50234756  0.43327555  1
  O  O463  1  0.18236309  0.57029984  0.40821975  1
  O  O464  1  0.18815366  0.57210756  0.60503141  1
  O  O465  1  0.25728039  0.58647706  0.48605388  1
  O  O466  1  0.44016404  0.17432428  0.40748266  1
  O  O467  1  0.43861933  0.17966430  0.60475214  1
  O  O468  1  0.42368533  0.24766273  0.48552683  1
  O  O469  1  0.82911612  0.41313645  0.59434104  1
  O  O470  1  0.82331006  0.41461781  0.39657754  1
  O  O471  1  0.75644565  0.42895746  0.51655660  1
  O  O472  1  0.59646525  0.83553828  0.59538475  1
  O  O473  1  0.59517121  0.82981526  0.39694330  1
  O  O474  1  0.58075449  0.76103529  0.51674611  1
