# generated using pymatgen
data_CoH206C264S2(NO3)4
_symmetry_space_group_name_H-M   'P 1'
_cell_length_a   76.38896409
_cell_length_b   77.65188198
_cell_length_c   30.05644498
_cell_angle_alpha   91.20127615
_cell_angle_beta   92.60345372
_cell_angle_gamma   91.27342759
_symmetry_Int_Tables_number   1
_chemical_formula_structural   CoH206C264S2(NO3)4
_chemical_formula_sum   'Co1 H206 C264 S2 N4 O12'
_cell_volume   178016.10815212
_cell_formula_units_Z   1
loop_
 _symmetry_equiv_pos_site_id
 _symmetry_equiv_pos_as_xyz
  1  'x, y, z'
loop_
 _atom_site_type_symbol
 _atom_site_label
 _atom_site_symmetry_multiplicity
 _atom_site_fract_x
 _atom_site_fract_y
 _atom_site_fract_z
 _atom_site_occupancy
  Co  Co0  1  0.50385064  0.50947082  0.50180239  1
  H  H1  1  0.97328022  0.52047051  0.00765597  1
  H  H2  1  0.00504448  0.50130164  0.88292241  1
  H  H3  1  0.00454176  0.50613391  0.12304388  1
  H  H4  1  0.03658286  0.48684050  0.99780163  1
  H  H5  1  0.49254491  0.97819534  0.00720962  1
  H  H6  1  0.51157168  0.01035908  0.88342547  1
  H  H7  1  0.50700626  0.00981266  0.12283005  1
  H  H8  1  0.52614992  0.04222537  0.99858429  1
  H  H9  1  0.51107838  0.48473711  0.56998908  1
  H  H10  1  0.51526110  0.45304441  0.57233055  1
  H  H11  1  0.51337101  0.45177173  0.42903284  1
  H  H12  1  0.50688372  0.48309018  0.43080826  1
  H  H13  1  0.52905246  0.51009212  0.43335055  1
  H  H14  1  0.56118804  0.51642453  0.43064852  1
  H  H15  1  0.56374720  0.51840728  0.57453092  1
  H  H16  1  0.53125853  0.51524736  0.57220729  1
  H  H17  1  0.51548340  0.54050556  0.55876231  1
  H  H18  1  0.50860169  0.57168910  0.55597691  1
  H  H19  1  0.47994294  0.56106678  0.43155004  1
  H  H20  1  0.48399815  0.52962719  0.44375809  1
  H  H21  1  0.49047546  0.49965940  0.59955464  1
  H  H22  1  0.47884053  0.48763941  0.44671514  1
  H  H23  1  0.44672901  0.48228272  0.44511295  1
  H  H24  1  0.44492815  0.51580338  0.56151378  1
  H  H25  1  0.47666778  0.52224791  0.55466925  1
  H  H26  1  0.50868725  0.52525648  0.40029662  1
  H  H27  1  0.10625156  0.45949366  0.24527896  1
  H  H28  1  0.09244245  0.42172008  0.25064703  1
  H  H29  1  0.10891488  0.40397955  0.30500056  1
  H  H30  1  0.13225788  0.40074262  0.36277442  1
  H  H31  1  0.14546216  0.45489257  0.35644299  1
  H  H32  1  0.12229339  0.45844692  0.29807081  1
  H  H33  1  0.16095862  0.40128771  0.40332431  1
  H  H34  1  0.14244056  0.40804547  0.43162069  1
  H  H35  1  0.13452092  0.43374340  0.52528869  1
  H  H36  1  0.13419512  0.41338324  0.49857661  1
  H  H37  1  0.13352038  0.43221767  0.46642634  1
  H  H38  1  0.18525937  0.40776231  0.39084590  1
  H  H39  1  0.19743873  0.39594436  0.43071708  1
  H  H40  1  0.20599887  0.41552992  0.41047567  1
  H  H41  1  0.19345693  0.45064517  0.58954931  1
  H  H42  1  0.20873531  0.45465936  0.54805754  1
  H  H43  1  0.20944883  0.43541157  0.57826339  1
  H  H44  1  0.22186105  0.42382111  0.52212336  1
  H  H45  1  0.22011438  0.41912468  0.46388409  1
  H  H46  1  0.24536210  0.42003948  0.48811327  1
  H  H47  1  0.27657490  0.42403501  0.49222941  1
  H  H48  1  0.27087639  0.47915897  0.47711012  1
  H  H49  1  0.23861215  0.47470645  0.47296861  1
  H  H50  1  0.30157291  0.46662923  0.48624690  1
  H  H51  1  0.29952327  0.42701888  0.49830569  1
  H  H52  1  0.16970395  0.45674383  0.57875074  1
  H  H53  1  0.14872154  0.45100619  0.55529093  1
  H  H54  1  0.14742577  0.46539145  0.61564247  1
  H  H55  1  0.12320872  0.47238286  0.66376939  1
  H  H56  1  0.12131115  0.41953537  0.70695458  1
  H  H57  1  0.14415117  0.41229622  0.65414040  1
  H  H58  1  0.10451850  0.46593592  0.71943684  1
  H  H59  1  0.10135444  0.42885255  0.75538184  1
  H  H60  1  0.55315650  0.11179733  0.24820525  1
  H  H61  1  0.59188755  0.10073733  0.25983663  1
  H  H62  1  0.60981067  0.11793626  0.31619730  1
  H  H63  1  0.61287558  0.14086613  0.37350844  1
  H  H64  1  0.55761361  0.15068056  0.35744911  1
  H  H65  1  0.55422810  0.12783032  0.29968680  1
  H  H66  1  0.61184671  0.16922136  0.41215064  1
  H  H67  1  0.60544569  0.15059743  0.44074051  1
  H  H68  1  0.57883779  0.14163491  0.53056013  1
  H  H69  1  0.59945556  0.14197862  0.50681053  1
  H  H70  1  0.58014832  0.14088222  0.47190320  1
  H  H71  1  0.60510579  0.19288989  0.39750772  1
  H  H72  1  0.61776647  0.20517682  0.43805907  1
  H  H73  1  0.59757641  0.21287554  0.41602703  1
  H  H74  1  0.56376493  0.19875288  0.59171559  1
  H  H75  1  0.55937400  0.21370389  0.54915306  1
  H  H76  1  0.57923570  0.21512428  0.58157308  1
  H  H77  1  0.59182968  0.22762771  0.52816910  1
  H  H78  1  0.59649581  0.22647527  0.47075243  1
  H  H79  1  0.59509067  0.25202403  0.49486581  1
  H  H80  1  0.58928258  0.28290212  0.49869724  1
  H  H81  1  0.53374095  0.27165272  0.47791360  1
  H  H82  1  0.53965041  0.24035474  0.47446742  1
  H  H83  1  0.54210512  0.29898045  0.48442369  1
  H  H84  1  0.58038488  0.31210384  0.50149256  1
  H  H85  1  0.55651662  0.17555003  0.57974761  1
  H  H86  1  0.56189332  0.15504958  0.55862762  1
  H  H87  1  0.54748593  0.15390633  0.61772667  1
  H  H88  1  0.54015795  0.12957159  0.66534965  1
  H  H89  1  0.59432292  0.12838518  0.71441047  1
  H  H90  1  0.60179514  0.15144148  0.66227665  1
  H  H91  1  0.54681869  0.11082070  0.72180710  1
  H  H92  1  0.58488995  0.10826269  0.76158573  1
  H  H93  1  0.91117623  0.57637568  0.76987436  1
  H  H94  1  0.91240126  0.53790893  0.73993803  1
  H  H95  1  0.89598361  0.52630707  0.68335424  1
  H  H96  1  0.87124627  0.52663148  0.62798737  1
  H  H97  1  0.86650235  0.58136485  0.65038634  1
  H  H98  1  0.88985701  0.58084557  0.71052770  1
  H  H99  1  0.84598592  0.52900219  0.59152736  1
  H  H100  1  0.86510024  0.53581500  0.56484083  1
  H  H101  1  0.87453649  0.56174153  0.47488856  1
  H  H102  1  0.87382168  0.54139194  0.49931389  1
  H  H103  1  0.87529743  0.56021618  0.53359792  1
  H  H104  1  0.82278406  0.53615520  0.60692945  1
  H  H105  1  0.81043178  0.52345134  0.56679778  1
  H  H106  1  0.80221400  0.54307189  0.58753664  1
  H  H107  1  0.81615851  0.57845280  0.41267725  1
  H  H108  1  0.80096850  0.58221859  0.45467689  1
  H  H109  1  0.79956481  0.56302253  0.42203840  1
  H  H110  1  0.78638619  0.55110052  0.47682664  1
  H  H111  1  0.78834775  0.54604982  0.53425761  1
  H  H112  1  0.76255400  0.54752177  0.51247649  1
  H  H113  1  0.73134304  0.55266576  0.50897439  1
  H  H114  1  0.74173251  0.60743204  0.52803589  1
  H  H115  1  0.77367090  0.60200709  0.53184633  1
  H  H116  1  0.71166016  0.59723767  0.51944603  1
  H  H117  1  0.70556023  0.55813505  0.50052009  1
  H  H118  1  0.84063945  0.58556767  0.42517360  1
  H  H119  1  0.86123170  0.57906691  0.44689954  1
  H  H120  1  0.86579038  0.59277250  0.38395921  1
  H  H121  1  0.88976466  0.59620310  0.33297279  1
  H  H122  1  0.88534334  0.54153387  0.29872343  1
  H  H123  1  0.86138366  0.53859308  0.34988735  1
  H  H124  1  0.90936456  0.58362033  0.27539348  1
  H  H125  1  0.90007917  0.54516513  0.25279636  1
  H  H126  1  0.43708901  0.91403726  0.76225765  1
  H  H127  1  0.47593341  0.91653988  0.73640876  1
  H  H128  1  0.48706083  0.90100674  0.68169920  1
  H  H129  1  0.48621818  0.87688936  0.62743754  1
  H  H130  1  0.43075009  0.86959819  0.64444942  1
  H  H131  1  0.43188095  0.89248708  0.70334614  1
  H  H132  1  0.48329009  0.85052048  0.59569193  1
  H  H133  1  0.47717934  0.86884382  0.56504116  1
  H  H134  1  0.45084371  0.87747210  0.47082602  1
  H  H135  1  0.47161706  0.87734473  0.49833438  1
  H  H136  1  0.45257537  0.87825505  0.52968013  1
  H  H137  1  0.47754022  0.82691601  0.60791496  1
  H  H138  1  0.48968803  0.81552591  0.56876198  1
  H  H139  1  0.47007316  0.80647309  0.58850539  1
  H  H140  1  0.43402669  0.81987027  0.40665441  1
  H  H141  1  0.43023090  0.80415619  0.44749487  1
  H  H142  1  0.44995575  0.80443138  0.41902510  1
  H  H143  1  0.46153170  0.79163858  0.47627668  1
  H  H144  1  0.46616671  0.79287170  0.53481524  1
  H  H145  1  0.46545502  0.76780722  0.50934002  1
  H  H146  1  0.46137122  0.73674501  0.51449629  1
  H  H147  1  0.40543428  0.74251491  0.52113945  1
  H  H148  1  0.41001418  0.77419499  0.52474869  1
  H  H149  1  0.42007064  0.71151140  0.51924251  1
  H  H150  1  0.45255462  0.71723634  0.46590325  1
  H  H151  1  0.42671897  0.84358091  0.41736278  1
  H  H152  1  0.43341628  0.86393669  0.44001617  1
  H  H153  1  0.41982191  0.86881699  0.37692177  1
  H  H154  1  0.41654124  0.89302474  0.32625480  1
  H  H155  1  0.47158185  0.88963758  0.29668152  1
  H  H156  1  0.47451672  0.86574892  0.34846834  1
  H  H157  1  0.42919985  0.91288965  0.26972988  1
  H  H158  1  0.46760987  0.90420006  0.24963841  1
  H  H159  1  0.41847670  0.50952731  0.52227501  1
  H  H160  1  0.41592936  0.47688659  0.52954175  1
  H  H161  1  0.39001900  0.49647266  0.52460593  1
  H  H162  1  0.32901647  0.43111807  0.52842462  1
  H  H163  1  0.33476665  0.46325869  0.52358888  1
  H  H164  1  0.35893479  0.44144864  0.53065310  1
  H  H165  1  0.32899259  0.42906790  0.47033657  1
  H  H166  1  0.33481653  0.46120491  0.46504833  1
  H  H167  1  0.35897083  0.43936454  0.47201227  1
  H  H168  1  0.41919773  0.50672551  0.46402970  1
  H  H169  1  0.41543573  0.47469652  0.47108583  1
  H  H170  1  0.38954437  0.49468278  0.46580370  1
  H  H171  1  0.54155359  0.44096045  0.47290967  1
  H  H172  1  0.52104682  0.41489368  0.46987545  1
  H  H173  1  0.55423438  0.41404331  0.47206215  1
  H  H174  1  0.54469454  0.32709443  0.47664337  1
  H  H175  1  0.57072073  0.34853493  0.47243841  1
  H  H176  1  0.53819356  0.35352906  0.47044699  1
  H  H177  1  0.54875687  0.32646969  0.53469413  1
  H  H178  1  0.57157705  0.34957593  0.53135893  1
  H  H179  1  0.53846847  0.35400909  0.52928992  1
  H  H180  1  0.54178614  0.44094733  0.53188788  1
  H  H181  1  0.52139687  0.41488718  0.52859351  1
  H  H182  1  0.55473597  0.41434274  0.53100725  1
  H  H183  1  0.58937343  0.50622704  0.53206222  1
  H  H184  1  0.59337266  0.53870088  0.53301215  1
  H  H185  1  0.61914629  0.51875875  0.53285203  1
  H  H186  1  0.68062528  0.58458569  0.53485583  1
  H  H187  1  0.67336826  0.55230667  0.53493486  1
  H  H188  1  0.64949470  0.57445046  0.53454224  1
  H  H189  1  0.68029813  0.58355351  0.47629189  1
  H  H190  1  0.67268232  0.55196634  0.47639397  1
  H  H191  1  0.64875142  0.57407980  0.47563174  1
  H  H192  1  0.58844341  0.50604016  0.47320111  1
  H  H193  1  0.59241789  0.53846652  0.47436722  1
  H  H194  1  0.61817165  0.51847297  0.47394702  1
  H  H195  1  0.46654263  0.57994493  0.48056984  1
  H  H196  1  0.49010392  0.60426811  0.47308176  1
  H  H197  1  0.45739963  0.60721410  0.47231501  1
  H  H198  1  0.46761500  0.69525152  0.48078669  1
  H  H199  1  0.44159790  0.67295145  0.47140719  1
  H  H200  1  0.47393744  0.66772616  0.47261887  1
  H  H201  1  0.46296363  0.69714025  0.53748002  1
  H  H202  1  0.44178326  0.67269744  0.53013572  1
  H  H203  1  0.47492570  0.66826232  0.53156689  1
  H  H204  1  0.47171690  0.58063589  0.53848627  1
  H  H205  1  0.49145285  0.60575886  0.53185743  1
  H  H206  1  0.45794265  0.60779754  0.53118782  1
  C  C207  1  0.02229917  0.49289242  0.93680188  1
  C  C208  1  0.02468298  0.49251851  0.98384766  1
  C  C209  1  0.01248563  0.49931274  0.01213236  1
  C  C210  1  0.00239266  0.50632009  0.08688813  1
  C  C211  1  0.01457954  0.49821321  0.06039811  1
  C  C212  1  0.98753622  0.51472061  0.06893420  1
  C  C213  1  0.98513246  0.51480333  0.02193101  1
  C  C214  1  0.99735278  0.50782850  0.99407082  1
  C  C215  1  0.99510439  0.50885893  0.94592296  1
  C  C216  1  0.00728381  0.50102775  0.91905050  1
  C  C217  1  0.52001224  0.02777866  0.93760427  1
  C  C218  1  0.52045891  0.03020550  0.98453190  1
  C  C219  1  0.51370936  0.01786978  0.01250815  1
  C  C220  1  0.50680907  0.00767095  0.08678111  1
  C  C221  1  0.51492096  0.02004812  0.06079225  1
  C  C222  1  0.49837509  0.99261387  0.06839998  1
  C  C223  1  0.49822268  0.99017331  0.02155703  1
  C  C224  1  0.50514499  0.00253308  0.99397863  1
  C  C225  1  0.50399942  1.00020273  0.94582620  1
  C  C226  1  0.51184276  0.01257942  0.91946060  1
  C  C227  1  0.51049847  0.47679429  0.53950291  1
  C  C228  1  0.51426654  0.45941063  0.54028678  1
  C  C229  1  0.51886223  0.45105815  0.50082588  1
  C  C230  1  0.51310379  0.45869853  0.46099587  1
  C  C231  1  0.50867456  0.47595226  0.46159983  1
  C  C232  1  0.53714142  0.51307380  0.46373329  1
  C  C233  1  0.55519411  0.51542561  0.46283003  1
  C  C234  1  0.56543747  0.51555804  0.50266654  1
  C  C235  1  0.55657543  0.51677480  0.54240015  1
  C  C236  1  0.53839222  0.51539554  0.54151119  1
  C  C237  1  0.50712161  0.54549835  0.53186258  1
  C  C238  1  0.50272531  0.56278883  0.53063585  1
  C  C239  1  0.49027902  0.56822438  0.49817692  1
  C  C240  1  0.48680786  0.55686373  0.46194022  1
  C  C241  1  0.48985696  0.53945499  0.46698553  1
  C  C242  1  0.47078994  0.49390345  0.47102508  1
  C  C243  1  0.45273520  0.49121477  0.47021139  1
  C  C244  1  0.44263257  0.50017220  0.50061956  1
  C  C245  1  0.45175311  0.51006252  0.53391979  1
  C  C246  1  0.46960488  0.51324269  0.53146490  1
  C  C247  1  0.09707164  0.44853420  0.23869021  1
  C  C248  1  0.10029726  0.43315721  0.26068353  1
  C  C249  1  0.11373850  0.43137107  0.29526960  1
  C  C250  1  0.11689369  0.41525930  0.31571569  1
  C  C251  1  0.12996831  0.41339378  0.34874393  1
  C  C252  1  0.14043147  0.42769043  0.36275973  1
  C  C253  1  0.13747466  0.44379924  0.34429880  1
  C  C254  1  0.12437299  0.44566468  0.31133467  1
  C  C255  1  0.15561442  0.41213733  0.42210750  1
  C  C256  1  0.16719319  0.41832780  0.46117144  1
  C  C257  1  0.18560647  0.41857866  0.45811868  1
  C  C258  1  0.19605882  0.42732244  0.49174817  1
  C  C259  1  0.18835802  0.43597343  0.52763873  1
  C  C260  1  0.16992561  0.43628401  0.52863061  1
  C  C261  1  0.15919194  0.42711822  0.49635717  1
  C  C262  1  0.13949450  0.42666327  0.49684019  1
  C  C263  1  0.19395811  0.40908427  0.42080319  1
  C  C264  1  0.20045172  0.44463740  0.56252450  1
  C  C265  1  0.21565858  0.42779513  0.49015370  1
  C  C266  1  0.23983730  0.44721774  0.48179512  1
  C  C267  1  0.25072808  0.43312043  0.48640160  1
  C  C268  1  0.26879387  0.43553982  0.48845002  1
  C  C269  1  0.27670522  0.45207979  0.48572176  1
  C  C270  1  0.26533333  0.46617659  0.47980205  1
  C  C271  1  0.24718393  0.46377157  0.47763200  1
  C  C272  1  0.29578083  0.45370414  0.48876661  1
  C  C273  1  0.30589545  0.43961582  0.49500926  1
  C  C274  1  0.16150933  0.44578012  0.56564586  1
  C  C275  1  0.14653724  0.43820928  0.63047017  1
  C  C276  1  0.14108594  0.45523117  0.63402901  1
  C  C277  1  0.12799699  0.45927221  0.66244755  1
  C  C278  1  0.12071234  0.44680638  0.69059656  1
  C  C279  1  0.12680793  0.42964882  0.68681407  1
  C  C280  1  0.13961345  0.42547482  0.65722238  1
  C  C281  1  0.10788131  0.45236691  0.72088660  1
  C  C282  1  0.09936947  0.44270998  0.75249067  1
  C  C283  1  0.56450081  0.10358511  0.24355482  1
  C  C284  1  0.58015899  0.10772802  0.26769721  1
  C  C285  1  0.58186183  0.12100314  0.30184935  1
  C  C286  1  0.59824103  0.12506258  0.32472874  1
  C  C287  1  0.60001192  0.13794866  0.35746379  1
  C  C288  1  0.58535078  0.14735187  0.36865795  1
  C  C289  1  0.56899214  0.14351151  0.34761571  1
  C  C290  1  0.56721870  0.13058434  0.31500045  1
  C  C291  1  0.60099553  0.16326413  0.42968848  1
  C  C292  1  0.59479309  0.17432657  0.46718499  1
  C  C293  1  0.59509167  0.19244555  0.46395629  1
  C  C294  1  0.58734407  0.20233259  0.49737292  1
  C  C295  1  0.57815147  0.19446983  0.53172147  1
  C  C296  1  0.57711914  0.17633864  0.53257792  1
  C  C297  1  0.58593266  0.16614147  0.50164529  1
  C  C298  1  0.58601547  0.14679887  0.50292526  1
  C  C299  1  0.60425098  0.20123334  0.42715824  1
  C  C300  1  0.56969484  0.20594325  0.56508047  1
  C  C301  1  0.58768684  0.22158519  0.49569383  1
  C  C302  1  0.56760752  0.24434632  0.48500017  1
  C  C303  1  0.58159129  0.25622575  0.49153495  1
  C  C304  1  0.57832325  0.27374668  0.49315530  1
  C  C305  1  0.56104817  0.27964905  0.48778647  1
  C  C306  1  0.54716014  0.26724317  0.48130121  1
  C  C307  1  0.55036968  0.24980175  0.47957761  1
  C  C308  1  0.55629434  0.29758260  0.48889845  1
  C  C309  1  0.56617384  0.31222213  0.49642129  1
  C  C310  1  0.56747811  0.16779063  0.56873622  1
  C  C311  1  0.57527311  0.15335880  0.63550462  1
  C  C312  1  0.55781732  0.14770192  0.63730753  1
  C  C313  1  0.55361423  0.13455042  0.66541648  1
  C  C314  1  0.56639817  0.12740396  0.69494897  1
  C  C315  1  0.58399079  0.13376567  0.69309708  1
  C  C316  1  0.58829738  0.14667861  0.66389826  1
  C  C317  1  0.56072117  0.11442969  0.72466370  1
  C  C318  1  0.57070662  0.10604219  0.75732641  1
  C  C319  1  0.91456967  0.56278324  0.76961303  1
  C  C320  1  0.90750686  0.55096817  0.73758906  1
  C  C321  1  0.89434514  0.55322056  0.70286913  1
  C  C322  1  0.88927566  0.53830211  0.67693199  1
  C  C323  1  0.87580548  0.53856257  0.64491737  1
  C  C324  1  0.86759546  0.55410036  0.63608777  1
  C  C325  1  0.87280896  0.56934132  0.65909263  1
  C  C326  1  0.88597003  0.56895277  0.69247850  1
  C  C327  1  0.85205082  0.53985479  0.57439055  1
  C  C328  1  0.84096083  0.54604945  0.53613394  1
  C  C329  1  0.82262977  0.54613249  0.53978197  1
  C  C330  1  0.81255589  0.55465429  0.50696583  1
  C  C331  1  0.82065705  0.56371703  0.47265289  1
  C  C332  1  0.83912152  0.56459261  0.47208538  1
  C  C333  1  0.84944113  0.55513904  0.50261204  1
  C  C334  1  0.86913461  0.55467590  0.50243210  1
  C  C335  1  0.81413155  0.53683512  0.57691256  1
  C  C336  1  0.80889818  0.57233173  0.43889388  1
  C  C337  1  0.79301837  0.55487330  0.50907094  1
  C  C338  1  0.77012811  0.57457567  0.52084712  1
  C  C339  1  0.75816886  0.56074837  0.51514802  1
  C  C340  1  0.74031834  0.56373055  0.51347438  1
  C  C341  1  0.73383076  0.58059337  0.51754836  1
  C  C342  1  0.74631656  0.59430578  0.52447102  1
  C  C343  1  0.76420908  0.59135644  0.52644371  1
  C  C344  1  0.71513232  0.58372536  0.51516115  1
  C  C345  1  0.70224535  0.57146098  0.50804084  1
  C  C346  1  0.84798410  0.57428516  0.43635344  1
  C  C347  1  0.86246464  0.56527804  0.37065751  1
  C  C348  1  0.87035496  0.58154593  0.36577309  1
  C  C349  1  0.88362628  0.58349342  0.33615254  1
  C  C350  1  0.88934244  0.56935052  0.30990118  1
  C  C351  1  0.88107401  0.55303480  0.31618888  1
  C  C352  1  0.86764637  0.55116666  0.34541334  1
  C  C353  1  0.90294172  0.57106651  0.27882139  1
  C  C354  1  0.90790807  0.55721386  0.25218170  1
  C  C355  1  0.45095438  0.91787070  0.76313209  1
  C  C356  1  0.46257832  0.91125348  0.73288439  1
  C  C357  1  0.45989882  0.89820297  0.69855459  1
  C  C358  1  0.47478011  0.89388705  0.67438505  1
  C  C359  1  0.47421278  0.88066462  0.64294467  1
  C  C360  1  0.45837280  0.87177486  0.63298727  1
  C  C361  1  0.44309396  0.87632030  0.65399336  1
  C  C362  1  0.44381422  0.88925455  0.68677862  1
  C  C363  1  0.47254937  0.85609871  0.57548903  1
  C  C364  1  0.46612972  0.84485659  0.53684999  1
  C  C365  1  0.46622182  0.82675713  0.54028646  1
  C  C366  1  0.45743127  0.81665076  0.50626580  1
  C  C367  1  0.44857402  0.82447366  0.46977354  1
  C  C368  1  0.44779675  0.84260515  0.46863069  1
  C  C369  1  0.45723670  0.85297611  0.50094196  1
  C  C370  1  0.45802678  0.87235663  0.49976798  1
  C  C371  1  0.47626439  0.81852984  0.57809716  1
  C  C372  1  0.44021936  0.81278843  0.43402188  1
  C  C373  1  0.45730262  0.79734040  0.50789566  1
  C  C374  1  0.43786407  0.77311385  0.51591957  1
  C  C375  1  0.45224558  0.76248393  0.51233654  1
  C  C376  1  0.44982518  0.74472087  0.51298125  1
  C  C377  1  0.43297828  0.73679494  0.51376536  1
  C  C378  1  0.41865904  0.74794043  0.51909195  1
  C  C379  1  0.42112231  0.76579365  0.52062301  1
  C  C380  1  0.43206256  0.71806908  0.50970286  1
  C  C381  1  0.44559235  0.70978935  0.49041900  1
  C  C382  1  0.43821117  0.85116123  0.43068941  1
  C  C383  1  0.44761398  0.86622086  0.36671208  1
  C  C384  1  0.43121017  0.87372012  0.36010415  1
  C  C385  1  0.42929492  0.88706408  0.33047130  1
  C  C386  1  0.44353468  0.89307037  0.30543151  1
  C  C387  1  0.45997641  0.88512401  0.31319467  1
  C  C388  1  0.46184698  0.87174866  0.34279461  1
  C  C389  1  0.44179731  0.90666032  0.27414258  1
  C  C390  1  0.45566698  0.91186637  0.24844579  1
  C  C391  1  0.42276289  0.50059464  0.49608884  1
  C  C392  1  0.41243111  0.48360035  0.49852867  1
  C  C393  1  0.39284263  0.48748726  0.49661003  1
  C  C394  1  0.38187857  0.47230463  0.49814664  1
  C  C395  1  0.32556687  0.43807534  0.49754063  1
  C  C396  1  0.33729788  0.45419198  0.49608340  1
  C  C397  1  0.35648384  0.44870836  0.49950103  1
  C  C398  1  0.36871040  0.46298399  0.49841098  1
  C  C399  1  0.53345970  0.43801110  0.50150027  1
  C  C400  1  0.52906095  0.41866177  0.50003913  1
  C  C401  1  0.54676649  0.40972890  0.50096588  1
  C  C402  1  0.54592467  0.39122947  0.50058737  1
  C  C403  1  0.55543874  0.32796119  0.50279449  1
  C  C404  1  0.56295915  0.34640223  0.50186503  1
  C  C405  1  0.54650875  0.35750039  0.50054531  1
  C  C406  1  0.54916917  0.37585258  0.50072197  1
  C  C407  1  0.58524382  0.51382961  0.50284309  1
  C  C408  1  0.59603113  0.53069132  0.50348995  1
  C  C409  1  0.61558555  0.52671652  0.50356645  1
  C  C410  1  0.62642554  0.54204495  0.50401885  1
  C  C411  1  0.68327010  0.57588731  0.50638977  1
  C  C412  1  0.67068863  0.56034412  0.50570630  1
  C  C413  1  0.65158391  0.56596103  0.50505441  1
  C  C414  1  0.63952382  0.55149355  0.50444214  1
  C  C415  1  0.47734343  0.58261812  0.50562299  1
  C  C416  1  0.48279245  0.60173271  0.50309555  1
  C  C417  1  0.46557386  0.61172425  0.50215258  1
  C  C418  1  0.46689016  0.63037336  0.50201063  1
  C  C419  1  0.45677874  0.69448861  0.50395228  1
  C  C420  1  0.44987908  0.67561679  0.50176997  1
  C  C421  1  0.46627060  0.66435670  0.50202179  1
  C  C422  1  0.46374918  0.64579146  0.50190154  1
  C  C423  1  0.03448943  0.48549985  0.90890290  1
  C  C424  1  0.04491857  0.47871580  0.88415742  1
  C  C425  1  0.05613031  0.47140655  0.85753334  1
  C  C426  1  0.06654382  0.46448092  0.83250843  1
  C  C427  1  0.07762640  0.45709745  0.80577773  1
  C  C428  1  0.08797756  0.45027323  0.78052865  1
  C  C429  1  0.52740176  0.04012855  0.91012364  1
  C  C430  1  0.53423369  0.05073107  0.88591498  1
  C  C431  1  0.54159714  0.06213094  0.85987247  1
  C  C432  1  0.54861567  0.07269978  0.83541567  1
  C  C433  1  0.55609867  0.08395262  0.80930154  1
  C  C434  1  0.56303451  0.09446848  0.78467870  1
  C  C435  1  0.97542170  0.52273571  0.09596598  1
  C  C436  1  0.96508297  0.53008239  0.11994375  1
  C  C437  1  0.95397400  0.53798132  0.14573024  1
  C  C438  1  0.94366018  0.54533559  0.17029096  1
  C  C439  1  0.93254653  0.55224392  0.19772375  1
  C  C440  1  0.92158229  0.55725740  0.22424381  1
  C  C441  1  0.49036704  0.98033584  0.09501456  1
  C  C442  1  0.48299297  0.96984172  0.11854762  1
  C  C443  1  0.47506410  0.95856625  0.14385537  1
  C  C444  1  0.46766082  0.94806048  0.16782087  1
  C  C445  1  0.46070209  0.93675036  0.19465144  1
  C  C446  1  0.45567464  0.92560831  0.22067567  1
  C  C447  1  0.52392603  0.03401486  0.08244638  1
  C  C448  1  0.53195433  0.04536503  0.10524983  1
  C  C449  1  0.54044494  0.05708879  0.13144862  1
  C  C450  1  0.54819402  0.06775730  0.15735117  1
  C  C451  1  0.55583579  0.07915684  0.18585922  1
  C  C452  1  0.56200578  0.09016583  0.21327698  1
  C  C453  1  0.02829381  0.48928935  0.08149959  1
  C  C454  1  0.03945399  0.48128319  0.10338040  1
  C  C455  1  0.05095823  0.47280701  0.12862080  1
  C  C456  1  0.06141010  0.46505438  0.15366956  1
  C  C457  1  0.07260385  0.45739090  0.18139740  1
  C  C458  1  0.08348639  0.45117696  0.20827229  1
  C  C459  1  0.98119972  0.51763026  0.92541536  1
  C  C460  1  0.96991507  0.52561049  0.90401007  1
  C  C461  1  0.95829535  0.53417599  0.87940488  1
  C  C462  1  0.94785506  0.54218008  0.85503868  1
  C  C463  1  0.93679716  0.55059960  0.82859942  1
  C  C464  1  0.92634084  0.55733666  0.80171010  1
  C  C465  1  0.49518051  0.98604453  0.92474751  1
  C  C466  1  0.48733100  0.97456537  0.90209600  1
  C  C467  1  0.47897446  0.96267801  0.87617587  1
  C  C468  1  0.47127201  0.95190945  0.85057139  1
  C  C469  1  0.46326842  0.94050076  0.82271673  1
  C  C470  1  0.45692744  0.92977807  0.79491200  1
  S  S471  1  0.50185984  0.51144494  0.58392706  1
  S  S472  1  0.50111420  0.51123748  0.41802947  1
  N  N473  1  0.50783319  0.48509984  0.50051611  1
  N  N474  1  0.52875160  0.51337198  0.50259280  1
  N  N475  1  0.50006457  0.53376951  0.50159062  1
  N  N476  1  0.47912258  0.50511426  0.50059413  1
  O  O477  1  0.15410495  0.42694241  0.39310112  1
  O  O478  1  0.15880641  0.43372099  0.60133311  1
  O  O479  1  0.22208154  0.44523225  0.48126665  1
  O  O480  1  0.58589055  0.16077429  0.39850542  1
  O  O481  1  0.57989790  0.16556934  0.60631348  1
  O  O482  1  0.56999727  0.22706352  0.48373004  1
  O  O483  1  0.85419687  0.55469079  0.60515974  1
  O  O484  1  0.84936841  0.56233473  0.39884407  1
  O  O485  1  0.78772801  0.57224631  0.52108429  1
  O  O486  1  0.45743861  0.85842681  0.60310992  1
  O  O487  1  0.45051961  0.85326021  0.39556061  1
  O  O488  1  0.43965998  0.79060061  0.51546136  1
