# generated using pymatgen
data_H108C167O6
_symmetry_space_group_name_H-M   'P 1'
_cell_length_a   74.97519913
_cell_length_b   74.85881293
_cell_length_c   44.57340163
_cell_angle_alpha   90.07334409
_cell_angle_beta   90.05539213
_cell_angle_gamma   94.90689427
_symmetry_Int_Tables_number   1
_chemical_formula_structural   H108C167O6
_chemical_formula_sum   'H216 C334 O12'
_cell_volume   249253.41942319
_cell_formula_units_Z   2
loop_
 _symmetry_equiv_pos_site_id
 _symmetry_equiv_pos_as_xyz
  1  'x, y, z'
loop_
 _atom_site_type_symbol
 _atom_site_label
 _atom_site_symmetry_multiplicity
 _atom_site_fract_x
 _atom_site_fract_y
 _atom_site_fract_z
 _atom_site_occupancy
  H  H0  1  0.04271381  0.48922960  0.95258773  1
  H  H1  1  0.06000683  0.49200281  0.90518195  1
  H  H2  1  0.03369581  0.53934952  0.88265055  1
  H  H3  1  0.01482549  0.53513963  0.92781187  1
  H  H4  1  0.04313319  0.51114558  0.99719927  1
  H  H5  1  0.00288508  0.48704837  0.92906933  1
  H  H6  1  0.98396976  0.48268800  0.88402240  1
  H  H7  1  0.95267572  0.52540810  0.91303635  1
  H  H8  1  0.97162726  0.52953374  0.95844346  1
  H  H9  1  0.97737182  0.53457436  0.04769494  1
  H  H10  1  0.96010898  0.53178341  0.09513871  1
  H  H11  1  0.98645150  0.48444057  0.11758443  1
  H  H12  1  0.00529245  0.48866222  0.07238004  1
  H  H13  1  0.97690844  0.51266120  0.00299154  1
  H  H14  1  0.01718034  0.53675872  0.07102173  1
  H  H15  1  0.03613749  0.54109982  0.11606875  1
  H  H16  1  0.06740464  0.49836688  0.08698873  1
  H  H17  1  0.04842235  0.49424862  0.04156689  1
  H  H18  1  0.53273407  0.97919689  0.04755599  1
  H  H19  1  0.52997827  0.96190682  0.09503528  1
  H  H20  1  0.48267842  0.98825589  0.11752173  1
  H  H21  1  0.48686267  0.00711304  0.07227278  1
  H  H22  1  0.51079671  0.97869914  0.00288132  1
  H  H23  1  0.53489600  0.01897850  0.07103652  1
  H  H24  1  0.53925911  0.03790786  0.11612479  1
  H  H25  1  0.49660885  0.06927933  0.08722119  1
  H  H26  1  0.49246860  0.05029811  0.04178753  1
  H  H27  1  0.48742007  0.04457146  0.95247005  1
  H  H28  1  0.49022187  0.06184587  0.90500977  1
  H  H29  1  0.53749725  0.03545758  0.88260964  1
  H  H30  1  0.53327290  0.01661402  0.92784732  1
  H  H31  1  0.50933380  0.04506325  0.99729278  1
  H  H32  1  0.48522950  0.00477235  0.92927455  1
  H  H33  1  0.48088063  0.98581071  0.88416179  1
  H  H34  1  0.52354184  0.95444946  0.91310625  1
  H  H35  1  0.52768148  0.97345643  0.95856874  1
  H  H36  1  0.51088657  0.54032568  0.45160602  1
  H  H37  1  0.50594613  0.57228682  0.45166429  1
  H  H38  1  0.50598622  0.57240344  0.54818789  1
  H  H39  1  0.51091746  0.54044434  0.54832859  1
  H  H40  1  0.53838956  0.51270160  0.45156450  1
  H  H41  1  0.57032694  0.50775830  0.45170309  1
  H  H42  1  0.53847856  0.51274284  0.54838715  1
  H  H43  1  0.50919112  0.48362025  0.54864989  1
  H  H44  1  0.51416689  0.45161846  0.54851629  1
  H  H45  1  0.51412123  0.45151184  0.45201785  1
  H  H46  1  0.50915644  0.48351410  0.45182687  1
  H  H47  1  0.48150078  0.51106044  0.54859582  1
  H  H48  1  0.44960257  0.51596235  0.54852777  1
  H  H49  1  0.44950982  0.51591375  0.45202040  1
  H  H50  1  0.48140469  0.51101427  0.45187606  1
  H  H51  1  0.57041720  0.50781371  0.54818364  1
  H  H52  1  0.13832140  0.55963691  0.31308522  1
  H  H53  1  0.12668052  0.51973963  0.32680245  1
  H  H54  1  0.13981738  0.50646806  0.36804958  1
  H  H55  1  0.15957506  0.50747867  0.41185323  1
  H  H56  1  0.17447497  0.56366920  0.39602020  1
  H  H57  1  0.15467243  0.56279569  0.35165276  1
  H  H58  1  0.18249641  0.51002039  0.43839989  1
  H  H59  1  0.16336296  0.51757187  0.45633728  1
  H  H60  1  0.15656344  0.54321972  0.52155560  1
  H  H61  1  0.15376150  0.52146881  0.50604185  1
  H  H62  1  0.15608971  0.54057974  0.48227900  1
  H  H63  1  0.20698456  0.51754419  0.42858498  1
  H  H64  1  0.21765142  0.50329624  0.45312776  1
  H  H65  1  0.22845078  0.52426233  0.44201201  1
  H  H66  1  0.21589926  0.55467556  0.56726719  1
  H  H67  1  0.23268675  0.55903136  0.53971622  1
  H  H68  1  0.23085370  0.53849737  0.55957187  1
  H  H69  1  0.24366624  0.52981202  0.51869152  1
  H  H70  1  0.24162781  0.52410148  0.47971650  1
  H  H71  1  0.26576051  0.52495738  0.49587381  1
  H  H72  1  0.29766575  0.52823974  0.49980080  1
  H  H73  1  0.29730515  0.58563977  0.48498637  1
  H  H74  1  0.26419590  0.58190999  0.48200883  1
  H  H75  1  0.32663100  0.57250513  0.49170437  1
  H  H76  1  0.32296193  0.53139179  0.50298956  1
  H  H77  1  0.19255609  0.56168951  0.55981344  1
  H  H78  1  0.17059663  0.55330553  0.54996530  1
  H  H79  1  0.17477619  0.56995477  0.58950979  1
  H  H80  1  0.15458420  0.57789449  0.62939932  1
  H  H81  1  0.15010367  0.52248301  0.65935330  1
  H  H82  1  0.17007957  0.51488834  0.61877856  1
  H  H83  1  0.13553441  0.56951678  0.67345440  1
  H  H84  1  0.13528775  0.52927138  0.69020569  1
  H  H85  1  0.53186101  0.13745750  0.31744283  1
  H  H86  1  0.57252157  0.13387889  0.32372581  1
  H  H87  1  0.58664430  0.14969935  0.36647999  1
  H  H88  1  0.58554257  0.16915168  0.41045566  1
  H  H89  1  0.52913701  0.17295022  0.39639150  1
  H  H90  1  0.52987285  0.15362507  0.35204575  1
  H  H91  1  0.58276351  0.19160205  0.43799208  1
  H  H92  1  0.57572240  0.17091002  0.45574946  1
  H  H93  1  0.54990156  0.15938243  0.52118081  1
  H  H94  1  0.57163491  0.16046414  0.50585049  1
  H  H95  1  0.55254250  0.15925652  0.48191282  1
  H  H96  1  0.57553056  0.21485937  0.42858210  1
  H  H97  1  0.58951951  0.22822459  0.45325078  1
  H  H98  1  0.56835294  0.23489551  0.44239107  1
  H  H99  1  0.53852369  0.21635136  0.56728452  1
  H  H100  1  0.53378381  0.23233547  0.53980457  1
  H  H101  1  0.55429559  0.23446649  0.55971928  1
  H  H102  1  0.56328782  0.24898957  0.51906002  1
  H  H103  1  0.56935368  0.24781664  0.48032106  1
  H  H104  1  0.56805495  0.27184756  0.49568515  1
  H  H105  1  0.56341719  0.30325140  0.49951991  1
  H  H106  1  0.50646404  0.29071858  0.48487684  1
  H  H107  1  0.51132608  0.25828315  0.48202710  1
  H  H108  1  0.51757935  0.32149496  0.49146985  1
  H  H109  1  0.55842136  0.33034310  0.50217139  1
  H  H110  1  0.53120518  0.19166842  0.55939184  1
  H  H111  1  0.53997702  0.17131942  0.54962579  1
  H  H112  1  0.52307404  0.17215959  0.58871356  1
  H  H113  1  0.51530366  0.15049853  0.62854542  1
  H  H114  1  0.57013579  0.15664250  0.66028596  1
  H  H115  1  0.57778321  0.17810680  0.61956344  1
  H  H116  1  0.52262470  0.13370680  0.67160419  1
  H  H117  1  0.56214583  0.13815314  0.69254612  1
  H  H118  1  0.88344362  0.49021054  0.68430299  1
  H  H119  1  0.88824785  0.44976566  0.67588954  1
  H  H120  1  0.87228287  0.43547231  0.63367210  1
  H  H121  1  0.85278384  0.43647068  0.58979258  1
  H  H122  1  0.84889134  0.49297775  0.60375944  1
  H  H123  1  0.86838332  0.49232815  0.64797607  1
  H  H124  1  0.83028806  0.43920245  0.56225502  1
  H  H125  1  0.85092727  0.44625192  0.54444942  1
  H  H126  1  0.86242830  0.47209905  0.47903336  1
  H  H127  1  0.86134322  0.45033018  0.49435916  1
  H  H128  1  0.86256060  0.46946212  0.51830072  1
  H  H129  1  0.80706656  0.44645571  0.57165426  1
  H  H130  1  0.79372806  0.43245508  0.54696608  1
  H  H131  1  0.78705696  0.45365015  0.55788160  1
  H  H132  1  0.80558468  0.48349340  0.43293779  1
  H  H133  1  0.78960397  0.48823648  0.46039057  1
  H  H134  1  0.78751913  0.46767207  0.44049750  1
  H  H135  1  0.77299830  0.45864684  0.48115768  1
  H  H136  1  0.77414259  0.45263218  0.51992272  1
  H  H137  1  0.75007523  0.45388216  0.50444928  1
  H  H138  1  0.71870261  0.45846707  0.50066913  1
  H  H139  1  0.73113344  0.51552402  0.51533405  1
  H  H140  1  0.76350807  0.51070557  0.51816349  1
  H  H141  1  0.70047316  0.50443962  0.50876692  1
  H  H142  1  0.69149126  0.46356453  0.49803908  1
  H  H143  1  0.83021925  0.49079059  0.44079667  1
  H  H144  1  0.85052707  0.48201126  0.45060035  1
  H  H145  1  0.84968891  0.49894724  0.41159696  1
  H  H146  1  0.87140118  0.50674334  0.37186588  1
  H  H147  1  0.86538352  0.45186220  0.34001639  1
  H  H148  1  0.84380584  0.44416080  0.38057429  1
  H  H149  1  0.88844540  0.49942185  0.32925223  1
  H  H150  1  0.88287896  0.46015051  0.30661833  1
  H  H151  1  0.46151041  0.88538274  0.68558211  1
  H  H152  1  0.50167614  0.89548274  0.67273799  1
  H  H153  1  0.51516009  0.88206615  0.63252329  1
  H  H154  1  0.51430296  0.86240211  0.58860023  1
  H  H155  1  0.45818272  0.84733705  0.60392636  1
  H  H156  1  0.45890568  0.86698033  0.64857472  1
  H  H157  1  0.51186375  0.83948086  0.56181593  1
  H  H158  1  0.50431906  0.85865956  0.54393532  1
  H  H159  1  0.47869847  0.86546365  0.47868147  1
  H  H160  1  0.50041236  0.86828561  0.49417878  1
  H  H161  1  0.48133969  0.86594037  0.51795522  1
  H  H162  1  0.50434955  0.81494141  0.57160207  1
  H  H163  1  0.51858368  0.80425045  0.54706383  1
  H  H164  1  0.49764069  0.79344875  0.55813972  1
  H  H165  1  0.46725764  0.80600773  0.43296195  1
  H  H166  1  0.46290203  0.78921028  0.46052813  1
  H  H167  1  0.48338704  0.79100731  0.44063824  1
  H  H168  1  0.49204371  0.77818852  0.48151952  1
  H  H169  1  0.49778683  0.78026304  0.52047593  1
  H  H170  1  0.49688575  0.75615832  0.50441422  1
  H  H171  1  0.49356114  0.72422669  0.50042086  1
  H  H172  1  0.43624713  0.72465862  0.51522215  1
  H  H173  1  0.44001879  0.75784134  0.51820766  1
  H  H174  1  0.44937421  0.69523689  0.50847729  1
  H  H175  1  0.49042664  0.69904474  0.49722720  1
  H  H176  1  0.46026247  0.82936883  0.44049156  1
  H  H177  1  0.46861083  0.85137835  0.45030931  1
  H  H178  1  0.45188336  0.84701003  0.41102905  1
  H  H179  1  0.44367502  0.86715323  0.37123531  1
  H  H180  1  0.49897336  0.87177359  0.34071104  1
  H  H181  1  0.50673169  0.85202098  0.38118011  1
  H  H182  1  0.45150828  0.88608345  0.32662456  1
  H  H183  1  0.49190049  0.88717092  0.31225046  1
  H  H184  1  0.12355737  0.53366155  0.79350755  1
  H  H185  1  0.07646907  0.54316788  0.74288247  1
  H  H186  1  0.09481896  0.54969062  0.69804847  1
  H  H187  1  0.14200725  0.53979588  0.74850405  1
  H  H188  1  0.56425380  0.10369929  0.77892692  1
  H  H189  1  0.50816109  0.09987550  0.75695475  1
  H  H190  1  0.51450681  0.11778466  0.71173529  1
  H  H191  1  0.57081643  0.12168343  0.73358427  1
  H  H192  1  0.94387452  0.48860641  0.26010329  1
  H  H193  1  0.89678321  0.48285115  0.20452815  1
  H  H194  1  0.87823298  0.47601194  0.24918035  1
  H  H195  1  0.92538245  0.48230997  0.30490100  1
  H  H196  1  0.51128540  0.91631133  0.23138163  1
  H  H197  1  0.45604358  0.92760638  0.23240978  1
  H  H198  1  0.45086728  0.90939762  0.27785504  1
  H  H199  1  0.50642828  0.89815364  0.27656441  1
  H  H200  1  0.56421851  0.10683035  0.22151208  1
  H  H201  1  0.50888202  0.09782639  0.24697577  1
  H  H202  1  0.51511783  0.11562567  0.29261636  1
  H  H203  1  0.57063446  0.12460203  0.26707304  1
  H  H204  1  0.12419782  0.53789097  0.20722331  1
  H  H205  1  0.07631580  0.53848337  0.26031166  1
  H  H206  1  0.09459031  0.54452571  0.30556178  1
  H  H207  1  0.14253767  0.54445434  0.25223530  1
  H  H208  1  0.89580807  0.48431423  0.79262003  1
  H  H209  1  0.94359799  0.48676609  0.73904573  1
  H  H210  1  0.92553838  0.47994716  0.69394376  1
  H  H211  1  0.87759437  0.47778412  0.74754170  1
  H  H212  1  0.45568498  0.92467166  0.76996033  1
  H  H213  1  0.51209316  0.91839196  0.76306542  1
  H  H214  1  0.50667341  0.89979328  0.71834902  1
  H  H215  1  0.45015195  0.90667449  0.72422884  1
  C  C216  1  0.02804999  0.51215228  0.94353143  1
  C  C217  1  0.04112457  0.50029926  0.93723373  1
  C  C218  1  0.05093743  0.50207165  0.91109754  1
  C  C219  1  0.04942802  0.51699153  0.89184529  1
  C  C220  1  0.03556582  0.52839105  0.89813671  1
  C  C221  1  0.02490800  0.52587421  0.92301486  1
  C  C222  1  0.01843623  0.51059776  0.97238960  1
  C  C223  1  0.02858888  0.51047539  0.99865765  1
  C  C224  1  -0.00029173  0.51171045  0.97368037  1
  C  C225  1  0.98869606  0.50895428  0.94642611  1
  C  C226  1  0.99222008  0.49576544  0.92508016  1
  C  C227  1  0.98156081  0.49319799  0.90013378  1
  C  C228  1  0.96714102  0.50399353  0.89445520  1
  C  C229  1  0.96369053  0.51702712  0.91647361  1
  C  C230  1  0.97401134  0.51916625  0.94209651  1
  C  C231  1  0.99202227  0.51163014  0.05667777  1
  C  C232  1  0.97896648  0.52349628  0.06302702  1
  C  C233  1  0.96918276  0.52172476  0.08919061  1
  C  C234  1  0.97073098  0.50680812  0.10842671  1
  C  C235  1  0.98457800  0.49540079  0.10210285  1
  C  C236  1  0.99520522  0.49791826  0.07719534  1
  C  C237  1  0.00160247  0.51317444  0.02778490  1
  C  C238  1  0.99145005  0.51330475  0.00151433  1
  C  C239  1  0.02032593  0.51205496  0.02648278  1
  C  C240  1  0.03135504  0.51482018  0.05369548  1
  C  C241  1  0.02783542  0.52803340  0.07501230  1
  C  C242  1  0.03850438  0.53059739  0.09991784  1
  C  C243  1  0.05290174  0.51976342  0.10549765  1
  C  C244  1  0.05637987  0.50673177  0.08352141  1
  C  C245  1  0.04604912  0.50460386  0.05793488  1
  C  C246  1  0.50980172  0.99382430  0.05660398  1
  C  C247  1  0.52167908  0.98077292  0.06291513  1
  C  C248  1  0.51993373  0.97098904  0.08908202  1
  C  C249  1  0.50503836  0.97253640  0.10831807  1
  C  C250  1  0.49362151  0.98639203  0.10202843  1
  C  C251  1  0.49611065  0.99702124  0.07711481  1
  C  C252  1  0.51133911  0.00342970  0.02774864  1
  C  C253  1  0.51146682  0.99327013  0.00147733  1
  C  C254  1  0.51024387  0.02218923  0.02650218  1
  C  C255  1  0.51300906  0.03319797  0.05377246  1
  C  C256  1  0.52619093  0.02965448  0.07507440  1
  C  C257  1  0.52875955  0.04031859  0.10003226  1
  C  C258  1  0.51797616  0.05475446  0.10574978  1
  C  C259  1  0.50496259  0.05823723  0.08375912  1
  C  C260  1  0.50281942  0.04790894  0.05812645  1
  C  C261  1  0.51035388  0.02992816  0.94353022  1
  C  C262  1  0.49849468  0.04298601  0.93715474  1
  C  C263  1  0.50027040  0.05277144  0.91098204  1
  C  C264  1  0.51517980  0.05122831  0.89176481  1
  C  C265  1  0.52655631  0.03735046  0.89809175  1
  C  C266  1  0.52403998  0.02672122  0.92301442  1
  C  C267  1  0.50880890  0.02034043  0.97242262  1
  C  C268  1  0.50867628  0.03049520  0.99870603  1
  C  C269  1  0.50991124  0.00158316  0.97369326  1
  C  C270  1  0.50714266  0.99055241  0.94647798  1
  C  C271  1  0.49393481  0.99410203  0.92521783  1
  C  C272  1  0.49136922  0.98343724  0.90029727  1
  C  C273  1  0.50219255  0.96902320  0.89468043  1
  C  C274  1  0.51520662  0.96550151  0.91661411  1
  C  C275  1  0.51733897  0.97583316  0.94221539  1
  C  C276  1  0.50319702  0.50519791  0.50018900  1
  C  C277  1  0.51676859  0.51867610  0.50002169  1
  C  C278  1  0.51269591  0.53808281  0.49997299  1
  C  C279  1  0.53611958  0.51449776  0.49998049  1
  C  C280  1  0.50732508  0.48581757  0.50023364  1
  C  C281  1  0.48381894  0.50932098  0.50023126  1
  C  C282  1  0.51022811  0.54735381  0.47297043  1
  C  C283  1  0.50666798  0.56520976  0.47295488  1
  C  C284  1  0.50406269  0.57490526  0.49991005  1
  C  C285  1  0.50668667  0.56527977  0.52690998  1
  C  C286  1  0.51024053  0.54742106  0.52694662  1
  C  C287  1  0.54537606  0.51203268  0.47294081  1
  C  C288  1  0.56318157  0.50846378  0.47293035  1
  C  C289  1  0.57275632  0.50582071  0.49993461  1
  C  C290  1  0.56323454  0.50849080  0.52696768  1
  C  C291  1  0.54542599  0.51205154  0.52699743  1
  C  C292  1  0.50983613  0.47659329  0.52729255  1
  C  C293  1  0.51342844  0.45877691  0.52730132  1
  C  C294  1  0.51607667  0.44920597  0.50027555  1
  C  C295  1  0.51340669  0.45871398  0.47322308  1
  C  C296  1  0.50982126  0.47653316  0.47319612  1
  C  C297  1  0.47451361  0.51174230  0.52721158  1
  C  C298  1  0.45666710  0.51527700  0.52722510  1
  C  C299  1  0.44696967  0.51787859  0.50028911  1
  C  C300  1  0.45661146  0.51525211  0.47331150  1
  C  C301  1  0.47445975  0.51172185  0.47327642  1
  C  C302  1  0.13147149  0.54623632  0.31006377  1
  C  C303  1  0.13359948  0.53301896  0.33027074  1
  C  C304  1  0.14549022  0.53443721  0.35611171  1
  C  C305  1  0.14728411  0.51910546  0.37403957  1
  C  C306  1  0.15835608  0.51967871  0.39896214  1
  C  C307  1  0.16794030  0.53582574  0.40692117  1
  C  C308  1  0.16679044  0.55121262  0.38956059  1
  C  C309  1  0.15563094  0.55057631  0.36458123  1
  C  C310  1  0.17750196  0.52126769  0.45089186  1
  C  C311  1  0.18865534  0.52626971  0.47780357  1
  C  C312  1  0.20731543  0.52582259  0.47542801  1
  C  C313  1  0.21792881  0.53282564  0.49945913  1
  C  C314  1  0.21060068  0.54058921  0.52503082  1
  C  C315  1  0.19190026  0.54108533  0.52633269  1
  C  C316  1  0.18076851  0.53400664  0.50292577  1
  C  C317  1  0.16086265  0.53487358  0.50325689  1
  C  C318  1  0.21549407  0.51744320  0.44859882  1
  C  C319  1  0.22300449  0.54857120  0.54897796  1
  C  C320  1  0.23767366  0.53334250  0.49712912  1
  C  C321  1  0.26288245  0.55339707  0.48954746  1
  C  C322  1  0.27248093  0.53841048  0.49396851  1
  C  C323  1  0.29093601  0.54034490  0.49577303  1
  C  C324  1  0.30075753  0.55731517  0.49256864  1
  C  C325  1  0.29045694  0.57229015  0.48756252  1
  C  C326  1  0.27187045  0.57036409  0.48591219  1
  C  C327  1  0.32003262  0.55904140  0.49401058  1
  C  C328  1  0.33028374  0.54449782  0.49865722  1
  C  C329  1  0.18423637  0.54943912  0.55331151  1
  C  C330  1  0.17328192  0.54175101  0.60123306  1
  C  C331  1  0.16907037  0.55951381  0.60456123  1
  C  C332  1  0.15775392  0.56398591  0.62747446  1
  C  C333  1  0.15034329  0.55097109  0.64814023  1
  C  C334  1  0.15528273  0.53317827  0.64436817  1
  C  C335  1  0.16671580  0.52869840  0.62152689  1
  C  C336  1  0.13833290  0.55547519  0.67217466  1
  C  C337  1  0.13138810  0.54302832  0.69225625  1
  C  C338  1  0.54486900  0.13317171  0.31097503  1
  C  C339  1  0.55940472  0.13855219  0.32828137  1
  C  C340  1  0.55848708  0.14994207  0.35479662  1
  C  C341  1  0.57389450  0.15469972  0.37253613  1
  C  C342  1  0.57331561  0.16556125  0.39776727  1
  C  C343  1  0.55714870  0.17198357  0.40642789  1
  C  C344  1  0.54168717  0.16778325  0.38950045  1
  C  C345  1  0.54229659  0.15685214  0.36432698  1
  C  C346  1  0.57172460  0.18433551  0.45040456  1
  C  C347  1  0.56667872  0.19447458  0.47746436  1
  C  C348  1  0.56738295  0.21325409  0.47550273  1
  C  C349  1  0.56075862  0.22249868  0.50001173  1
  C  C350  1  0.55261625  0.21377099  0.52519381  1
  C  C351  1  0.55198464  0.19494706  0.52622306  1
  C  C352  1  0.55894441  0.18518086  0.50252535  1
  C  C353  1  0.55819248  0.16511370  0.50286564  1
  C  C354  1  0.57548718  0.22323612  0.44877166  1
  C  C355  1  0.54443780  0.22468290  0.54906844  1
  C  C356  1  0.56013570  0.24211138  0.49758560  1
  C  C357  1  0.53970917  0.26315919  0.48936604  1
  C  C358  1  0.55442614  0.27577124  0.49373387  1
  C  C359  1  0.55181707  0.29373870  0.49557859  1
  C  C360  1  0.53445166  0.29975940  0.49249297  1
  C  C361  1  0.51991075  0.28648303  0.48740983  1
  C  C362  1  0.52248212  0.26841413  0.48572752  1
  C  C363  1  0.53141617  0.31834386  0.49413453  1
  C  C364  1  0.54433337  0.33272670  0.49874891  1
  C  C365  1  0.54360864  0.18568091  0.55306481  1
  C  C366  1  0.55113058  0.17610926  0.60122432  1
  C  C367  1  0.53349542  0.16851768  0.60404769  1
  C  C368  1  0.52906947  0.15642798  0.62693561  1
  C  C369  1  0.54187619  0.15164380  0.64819016  1
  C  C370  1  0.55960839  0.15986429  0.64485406  1
  C  C371  1  0.56408269  0.17207325  0.62198026  1
  C  C372  1  0.53662705  0.13902874  0.67213841  1
  C  C373  1  0.54796298  0.13357886  0.69363522  1
  C  C374  1  0.88840295  0.47719237  0.68955431  1
  C  C375  1  0.88373727  0.46296354  0.67127211  1
  C  C376  1  0.87213639  0.46374533  0.64505886  1
  C  C377  1  0.86733500  0.44824335  0.62750095  1
  C  C378  1  0.85639797  0.44874745  0.60239138  1
  C  C379  1  0.84992925  0.46491668  0.59374843  1
  C  C380  1  0.85410551  0.48043493  0.61062218  1
  C  C381  1  0.86511719  0.47989535  0.63567977  1
  C  C382  1  0.83752994  0.45026367  0.54983253  1
  C  C383  1  0.82740067  0.45532871  0.52278776  1
  C  C384  1  0.80865239  0.45464748  0.52475883  1
  C  C385  1  0.79942026  0.46129428  0.50026808  1
  C  C386  1  0.80814276  0.46940649  0.47505659  1
  C  C387  1  0.82693389  0.47001098  0.47400777  1
  C  C388  1  0.83667960  0.46305378  0.49771314  1
  C  C389  1  0.85671167  0.46379812  0.49735361  1
  C  C390  1  0.79869692  0.44650992  0.55147738  1
  C  C391  1  0.79726119  0.47757007  0.45115014  1
  C  C392  1  0.77982274  0.46186401  0.50264682  1
  C  C393  1  0.75870392  0.48227021  0.51078626  1
  C  C394  1  0.74612787  0.46752178  0.50641274  1
  C  C395  1  0.72817292  0.47010856  0.50459925  1
  C  C396  1  0.72212357  0.48748832  0.50770205  1
  C  C397  1  0.73537036  0.50205953  0.51278397  1
  C  C398  1  0.75341894  0.49951119  0.51444616  1
  C  C399  1  0.70355919  0.49056300  0.50608904  1
  C  C400  1  0.68914714  0.47768437  0.50148572  1
  C  C401  1  0.83619119  0.47837044  0.44714924  1
  C  C402  1  0.84578636  0.47083965  0.39902410  1
  C  C403  1  0.85336526  0.48851271  0.39628313  1
  C  C404  1  0.86551929  0.49294560  0.37352869  1
  C  C405  1  0.87039790  0.48010194  0.35238869  1
  C  C406  1  0.86212261  0.46237308  0.35548877  1
  C  C407  1  0.84984358  0.45788317  0.37824346  1
  C  C408  1  0.88326294  0.48534567  0.32882363  1
  C  C409  1  0.88820028  0.47426474  0.30668163  1
  C  C410  1  0.47514633  0.89118440  0.68974697  1
  C  C411  1  0.48861679  0.88802510  0.67032270  1
  C  C412  1  0.48720441  0.87622182  0.64439435  1
  C  C413  1  0.50257929  0.87452175  0.62651341  1
  C  C414  1  0.50209403  0.86353572  0.60147115  1
  C  C415  1  0.48600834  0.85394705  0.59331549  1
  C  C416  1  0.47058773  0.85501837  0.61057415  1
  C  C417  1  0.47113381  0.86607875  0.63569361  1
  C  C418  1  0.50064245  0.84448722  0.54931860  1
  C  C419  1  0.49567917  0.83332861  0.52237799  1
  C  C420  1  0.49612389  0.81463764  0.52474238  1
  C  C421  1  0.48914070  0.80400943  0.50070327  1
  C  C422  1  0.48134999  0.81133085  0.47516649  1
  C  C423  1  0.48084900  0.83006048  0.47389593  1
  C  C424  1  0.48792043  0.84122141  0.49728977  1
  C  C425  1  0.48703574  0.86115893  0.49697014  1
  C  C426  1  0.50446049  0.80642613  0.55157613  1
  C  C427  1  0.47335228  0.79889546  0.45124770  1
  C  C428  1  0.48856817  0.78424066  0.50307303  1
  C  C429  1  0.46848612  0.75908898  0.51071217  1
  C  C430  1  0.48344080  0.74945499  0.50629883  1
  C  C431  1  0.48148223  0.73097999  0.50445815  1
  C  C432  1  0.46451827  0.72118428  0.50764259  1
  C  C433  1  0.44957771  0.73151393  0.51265581  1
  C  C434  1  0.45152829  0.75012560  0.51432168  1
  C  C435  1  0.46279630  0.70189485  0.50617145  1
  C  C436  1  0.47735143  0.69168299  0.50151507  1
  C  C437  1  0.47248650  0.83772322  0.44695189  1
  C  C438  1  0.47999745  0.84864153  0.39899177  1
  C  C439  1  0.46222020  0.85275172  0.39584388  1
  C  C440  1  0.45757914  0.86401358  0.37295027  1
  C  C441  1  0.47037699  0.87147551  0.35200909  1
  C  C442  1  0.48825941  0.86667050  0.35570717  1
  C  C443  1  0.49290049  0.85530420  0.37855507  1
  C  C444  1  0.46552458  0.88330691  0.32785849  1
  C  C445  1  0.47820821  0.89046179  0.30820829  1
  C  C446  1  0.42912576  0.52246458  0.50038431  1
  C  C447  1  0.41357657  0.52687503  0.50021768  1
  C  C448  1  0.39686887  0.53161503  0.50002492  1
  C  C449  1  0.38121354  0.53607771  0.49977592  1
  C  C450  1  0.36450623  0.54072124  0.49922085  1
  C  C451  1  0.34867283  0.54465275  0.49857871  1
  C  C452  1  0.52077340  0.43144795  0.50033936  1
  C  C453  1  0.52506883  0.41588380  0.50034561  1
  C  C454  1  0.52967207  0.39913207  0.50034983  1
  C  C455  1  0.53359730  0.38331891  0.50022746  1
  C  C456  1  0.53721392  0.36628142  0.49982741  1
  C  C457  1  0.54024007  0.35023942  0.49931865  1
  C  C458  1  0.59050637  0.50114788  0.49987120  1
  C  C459  1  0.60606098  0.49687573  0.49987911  1
  C  C460  1  0.62280260  0.49229811  0.49989003  1
  C  C461  1  0.63861060  0.48841497  0.50002985  1
  C  C462  1  0.65563836  0.48483630  0.50043992  1
  C  C463  1  0.67166546  0.48182802  0.50094687  1
  C  C464  1  0.49945790  0.59275705  0.49980288  1
  C  C465  1  0.49503508  0.60831817  0.49995111  1
  C  C466  1  0.49028176  0.62503941  0.50012445  1
  C  C467  1  0.48580677  0.64070730  0.50036305  1
  C  C468  1  0.48115251  0.65742974  0.50091354  1
  C  C469  1  0.47721144  0.67327672  0.50156053  1
  C  C470  1  0.11733211  0.53727765  0.77249430  1
  C  C471  1  0.09843701  0.53780479  0.77196960  1
  C  C472  1  0.09094339  0.54267527  0.74412507  1
  C  C473  1  0.10134159  0.54622866  0.71884947  1
  C  C474  1  0.06047762  0.52085474  0.86690867  1
  C  C475  1  0.12757769  0.54047639  0.74712013  1
  C  C476  1  0.08814705  0.53372891  0.79779011  1
  C  C477  1  0.07931462  0.52960120  0.82032502  1
  C  C478  1  0.06966802  0.52501523  0.84480189  1
  C  C479  1  0.12001062  0.54464699  0.71916707  1
  C  C480  1  0.55336634  0.10692077  0.76416469  1
  C  C481  1  0.53561291  0.10044096  0.77197856  1
  C  C482  1  0.52192290  0.10480672  0.75173654  1
  C  C483  1  0.52557000  0.11502451  0.72637843  1
  C  C484  1  0.51906767  0.06227705  0.86683028  1
  C  C485  1  0.55699520  0.11713082  0.73883442  1
  C  C486  1  0.53179689  0.09028576  0.79800482  1
  C  C487  1  0.52781963  0.08136455  0.82051610  1
  C  C488  1  0.52323583  0.07153654  0.84480101  1
  C  C489  1  0.54329626  0.12197295  0.71917742  1
  C  C490  1  0.92939157  0.48609747  0.25784343  1
  C  C491  1  0.92186738  0.48642824  0.22856018  1
  C  C492  1  0.90298389  0.48270679  0.22666466  1
  C  C493  1  0.89264187  0.47889896  0.25174038  1
  C  C494  1  0.95973871  0.50293968  0.13341670  1
  C  C495  1  0.91891066  0.48273597  0.28304043  1
  C  C496  1  0.93215115  0.49031617  0.20270264  1
  C  C497  1  0.94096727  0.49430615  0.18009823  1
  C  C498  1  0.95059960  0.49881424  0.15558781  1
  C  C499  1  0.90010448  0.47919238  0.28092978  1
  C  C500  1  0.49802073  0.91471129  0.24160909  1
  C  C501  1  0.48401851  0.92340373  0.22794754  1
  C  C502  1  0.46703398  0.92096851  0.24227538  1
  C  C503  1  0.46419665  0.91060967  0.26795825  1
  C  C504  1  0.50117070  0.96148025  0.13323692  1
  C  C505  1  0.49522321  0.90450725  0.26700479  1
  C  C506  1  0.48766840  0.93365620  0.20191838  1
  C  C507  1  0.49192513  0.94251287  0.17947473  1
  C  C508  1  0.49683394  0.95224532  0.15521252  1
  C  C509  1  0.47827994  0.90181125  0.28127932  1
  C  C510  1  0.55347009  0.10869985  0.23738982  1
  C  C511  1  0.53602288  0.10077652  0.23026153  1
  C  C512  1  0.52244127  0.10372727  0.25146612  1
  C  C513  1  0.52596519  0.11381906  0.27698714  1
  C  C514  1  0.52091854  0.06477665  0.13222136  1
  C  C515  1  0.55702221  0.11873092  0.26319947  1
  C  C516  1  0.53205896  0.09070231  0.20406894  1
  C  C517  1  0.52836722  0.08228438  0.18085764  1
  C  C518  1  0.52435058  0.07314970  0.15554044  1
  C  C519  1  0.54330745  0.12180919  0.28405518  1
  C  C520  1  0.11776870  0.53938383  0.22891706  1
  C  C521  1  0.09872102  0.53733728  0.23003791  1
  C  C522  1  0.09087707  0.53951739  0.25869077  1
  C  C523  1  0.10118576  0.54261620  0.28414967  1
  C  C524  1  0.06290687  0.52266164  0.13192620  1
  C  C525  1  0.12800011  0.54297097  0.25421839  1
  C  C526  1  0.08852334  0.53346112  0.20405154  1
  C  C527  1  0.08016763  0.52988761  0.18078438  1
  C  C528  1  0.07118313  0.52602502  0.15531946  1
  C  C529  1  0.12011195  0.54383942  0.28296389  1
  C  C530  1  0.90229582  0.48326451  0.77087102  1
  C  C531  1  0.92129146  0.48614285  0.76978432  1
  C  C532  1  0.92907787  0.48456639  0.74093750  1
  C  C533  1  0.91883551  0.48068254  0.71555028  1
  C  C534  1  0.95711975  0.50107989  0.86799166  1
  C  C535  1  0.89211086  0.47966946  0.74543772  1
  C  C536  1  0.93147984  0.49023413  0.79580087  1
  C  C537  1  0.93983054  0.49383395  0.81909458  1
  C  C538  1  0.94883018  0.49771623  0.84458369  1
  C  C539  1  0.89994783  0.47812596  0.71676898  1
  C  C540  1  0.46684104  0.91927032  0.75832851  1
  C  C541  1  0.48436765  0.92310866  0.77026821  1
  C  C542  1  0.49851425  0.91583404  0.75432417  1
  C  C543  1  0.49544883  0.90564864  0.72883814  1
  C  C544  1  0.49924252  0.95902775  0.86824420  1
  C  C545  1  0.46378496  0.90908944  0.73269959  1
  C  C546  1  0.48796878  0.93323626  0.79642354  1
  C  C547  1  0.49167144  0.94164162  0.81960485  1
  C  C548  1  0.49574400  0.95070384  0.84493109  1
  C  C549  1  0.47799453  0.90204048  0.71665862  1
  O  O550  1  0.17858259  0.53707807  0.43154705  1
  O  O551  1  0.18362166  0.53682556  0.57815499  1
  O  O552  1  0.24471409  0.55146941  0.48919949  1
  O  O553  1  0.55590771  0.18242019  0.43111594  1
  O  O554  1  0.55604131  0.18736672  0.57821760  1
  O  O555  1  0.54199865  0.24542163  0.48901942  1
  O  O556  1  0.83945285  0.46610902  0.56912347  1
  O  O557  1  0.83452841  0.46590700  0.42200123  1
  O  O558  1  0.77642609  0.48001870  0.51113459  1
  O  O559  1  0.48482694  0.84335194  0.56860864  1
  O  O560  1  0.48504880  0.83835329  0.42205617  1
  O  O561  1  0.47045156  0.77728093  0.51106923  1
