# generated using pymatgen
data_MgH102C127(N8O7)2
_symmetry_space_group_name_H-M   'P 1'
_cell_length_a   74.34619317
_cell_length_b   73.57238786
_cell_length_c   35.01563527
_cell_angle_alpha   89.96185944
_cell_angle_beta   90.18693948
_cell_angle_gamma   88.18498152
_symmetry_Int_Tables_number   1
_chemical_formula_structural   MgH102C127(N8O7)2
_chemical_formula_sum   'Mg2 H204 C254 N32 O28'
_cell_volume   191432.29846353
_cell_formula_units_Z   2
loop_
 _symmetry_equiv_pos_site_id
 _symmetry_equiv_pos_as_xyz
  1  'x, y, z'
loop_
 _atom_site_type_symbol
 _atom_site_label
 _atom_site_symmetry_multiplicity
 _atom_site_fract_x
 _atom_site_fract_y
 _atom_site_fract_z
 _atom_site_occupancy
  Mg  Mg0  1  0.00408518  0.50640064  -0.00084248  1
  Mg  Mg1  1  0.50434029  0.00672157  0.00104000  1
  H  H2  1  0.50263193  0.53486187  0.43815716  1
  H  H3  1  0.49151199  0.56651330  0.43817374  1
  H  H4  1  0.49176410  0.56669546  0.56111798  1
  H  H5  1  0.50288837  0.53504748  0.56160777  1
  H  H6  1  0.53202921  0.50475828  0.43844371  1
  H  H7  1  0.56357036  0.49415533  0.43889699  1
  H  H8  1  0.53215061  0.50490379  0.56194402  1
  H  H9  1  0.50359501  0.47767956  0.56203755  1
  H  H10  1  0.51560632  0.44623367  0.56183407  1
  H  H11  1  0.51541814  0.44601633  0.43927619  1
  H  H12  1  0.50339235  0.47745710  0.43847784  1
  H  H13  1  0.47564914  0.50834506  0.56171384  1
  H  H14  1  0.44429761  0.51944363  0.56170631  1
  H  H15  1  0.44388625  0.51941775  0.43875403  1
  H  H16  1  0.47526927  0.50840133  0.43831711  1
  H  H17  1  0.56368291  0.49427521  0.56178265  1
  H  H18  1  0.11224944  0.59524506  0.26314138  1
  H  H19  1  0.11341418  0.55382375  0.28056152  1
  H  H20  1  0.12972101  0.54156495  0.32976294  1
  H  H21  1  0.15099676  0.54332165  0.38328828  1
  H  H22  1  0.15248560  0.60155239  0.36915315  1
  H  H23  1  0.13164261  0.59985639  0.31400809  1
  H  H24  1  0.17301832  0.54733019  0.41872266  1
  H  H25  1  0.15234911  0.55303422  0.44154624  1
  H  H26  1  0.14031962  0.57906357  0.52382942  1
  H  H27  1  0.14154111  0.55758356  0.50166053  1
  H  H28  1  0.14090434  0.57760121  0.47348253  1
  H  H29  1  0.19681762  0.55385325  0.40896411  1
  H  H30  1  0.21016166  0.54075087  0.44138375  1
  H  H31  1  0.21680572  0.56258687  0.42684073  1
  H  H32  1  0.19880541  0.59219714  0.58477313  1
  H  H33  1  0.21521065  0.59749703  0.54983689  1
  H  H34  1  0.21630806  0.57640799  0.57392793  1
  H  H35  1  0.23088536  0.56653440  0.52567397  1
  H  H36  1  0.22992557  0.56028596  0.47670993  1
  H  H37  1  0.25524932  0.56154122  0.49257514  1
  H  H38  1  0.28739181  0.56608298  0.48750493  1
  H  H39  1  0.27780731  0.62422825  0.47917070  1
  H  H40  1  0.24500985  0.61916074  0.47585374  1
  H  H41  1  0.31118308  0.60897986  0.48151862  1
  H  H42  1  0.30618486  0.57532901  0.53057338  1
  H  H43  1  0.17394904  0.60236586  0.56968128  1
  H  H44  1  0.15309271  0.59319112  0.55687030  1
  H  H45  1  0.15066840  0.60965522  0.60964847  1
  H  H46  1  0.12790519  0.61429534  0.65963233  1
  H  H47  1  0.13700707  0.55833278  0.69641206  1
  H  H48  1  0.16004203  0.55426291  0.64675665  1
  H  H49  1  0.10961147  0.60191037  0.71435343  1
  H  H50  1  0.12346553  0.56356229  0.73999443  1
  H  H51  1  0.56604069  0.12421301  0.26925508  1
  H  H52  1  0.60416082  0.10667348  0.28116996  1
  H  H53  1  0.62171124  0.12036838  0.33379968  1
  H  H54  1  0.62368667  0.14066573  0.38918942  1
  H  H55  1  0.56846158  0.15866217  0.37169897  1
  H  H56  1  0.56608112  0.13826380  0.31654272  1
  H  H57  1  0.62302120  0.16707399  0.42723072  1
  H  H58  1  0.61383519  0.14767221  0.44890059  1
  H  H59  1  0.58820685  0.14017576  0.53164083  1
  H  H60  1  0.60943456  0.13876334  0.50942919  1
  H  H61  1  0.58959879  0.13954953  0.48126497  1
  H  H62  1  0.61312517  0.19204557  0.41020470  1
  H  H63  1  0.62816602  0.20300475  0.44130237  1
  H  H64  1  0.60766290  0.21398201  0.42706291  1
  H  H65  1  0.57535483  0.20182015  0.58479097  1
  H  H66  1  0.57163428  0.21834692  0.54864277  1
  H  H67  1  0.59225883  0.21709342  0.57387967  1
  H  H68  1  0.60170970  0.23017443  0.52268125  1
  H  H69  1  0.60628776  0.22846623  0.47285480  1
  H  H70  1  0.60531188  0.25451728  0.49512993  1
  H  H71  1  0.60070131  0.28693899  0.50129199  1
  H  H72  1  0.54350186  0.28151695  0.48200671  1
  H  H73  1  0.54825624  0.24797849  0.47842458  1
  H  H74  1  0.55514022  0.31181788  0.49143585  1
  H  H75  1  0.59642725  0.31277931  0.50525924  1
  H  H76  1  0.56840218  0.17805610  0.57769039  1
  H  H77  1  0.57404886  0.15561539  0.56349279  1
  H  H78  1  0.55898866  0.16049401  0.61704891  1
  H  H79  1  0.55036307  0.13844192  0.66594033  1
  H  H80  1  0.60615152  0.13166580  0.70042549  1
  H  H81  1  0.61477764  0.15295817  0.64927495  1
  H  H82  1  0.55694218  0.11904103  0.71709736  1
  H  H83  1  0.59647217  0.11290290  0.74445979  1
  H  H84  1  0.88750467  0.44495893  0.73553128  1
  H  H85  1  0.90450664  0.40634627  0.72332801  1
  H  H86  1  0.89073355  0.38883289  0.67099559  1
  H  H87  1  0.87042470  0.38690305  0.61582501  1
  H  H88  1  0.85267365  0.44267580  0.63333180  1
  H  H89  1  0.87302686  0.44496681  0.68840896  1
  H  H90  1  0.84417842  0.38763370  0.57809719  1
  H  H91  1  0.86338584  0.39680259  0.55625116  1
  H  H92  1  0.87051309  0.42274088  0.47295990  1
  H  H93  1  0.87207135  0.40132422  0.49551966  1
  H  H94  1  0.87119796  0.42141184  0.52338236  1
  H  H95  1  0.81941031  0.39746515  0.59469285  1
  H  H96  1  0.80834192  0.38219237  0.56411848  1
  H  H97  1  0.79775744  0.40313302  0.57749800  1
  H  H98  1  0.80933723  0.43524896  0.41948718  1
  H  H99  1  0.79313120  0.43888850  0.45578716  1
  H  H100  1  0.79427215  0.41813077  0.43044389  1
  H  H101  1  0.78172846  0.40771620  0.48085961  1
  H  H102  1  0.78360372  0.40260633  0.53051444  1
  H  H103  1  0.75722903  0.40390854  0.50843953  1
  H  H104  1  0.72470089  0.40948751  0.50293207  1
  H  H105  1  0.73207878  0.46690453  0.52174406  1
  H  H106  1  0.76518902  0.46135956  0.52485515  1
  H  H107  1  0.70436501  0.45783691  0.51661267  1
  H  H108  1  0.69338403  0.41840533  0.50028330  1
  H  H109  1  0.83281270  0.44244676  0.42656076  1
  H  H110  1  0.85509174  0.43688305  0.44071971  1
  H  H111  1  0.85009281  0.45203165  0.38693163  1
  H  H112  1  0.87196221  0.46078585  0.33826947  1
  H  H113  1  0.87881906  0.40440455  0.30442149  1
  H  H114  1  0.85773571  0.39566386  0.35541708  1
  H  H115  1  0.89119352  0.45422910  0.28754501  1
  H  H116  1  0.89745223  0.41432535  0.26058151  1
  H  H117  1  0.41548402  0.89797408  0.73255512  1
  H  H118  1  0.45656623  0.89708314  0.71634426  1
  H  H119  1  0.46891365  0.88077321  0.66727053  1
  H  H120  1  0.46731404  0.85947040  0.61350377  1
  H  H121  1  0.40964058  0.85791245  0.62634584  1
  H  H122  1  0.41116570  0.87878098  0.68172738  1
  H  H123  1  0.46352401  0.83789088  0.57722438  1
  H  H124  1  0.45763731  0.85892280  0.55494766  1
  H  H125  1  0.43179359  0.87117537  0.47223778  1
  H  H126  1  0.45304638  0.87001627  0.49463963  1
  H  H127  1  0.43323052  0.87043848  0.52261108  1
  H  H128  1  0.45691501  0.81391162  0.58737620  1
  H  H129  1  0.46993118  0.80042196  0.55527088  1
  H  H130  1  0.44824317  0.79379886  0.56934618  1
  H  H131  1  0.41891284  0.81211185  0.41134017  1
  H  H132  1  0.41349531  0.79566668  0.44651624  1
  H  H133  1  0.43435175  0.79428343  0.42259038  1
  H  H134  1  0.44407697  0.77952821  0.47099309  1
  H  H135  1  0.45053223  0.78064897  0.51981847  1
  H  H136  1  0.44897666  0.75529437  0.50545591  1
  H  H137  1  0.44412942  0.72288618  0.50984629  1
  H  H138  1  0.38661505  0.73311201  0.51714486  1
  H  H139  1  0.39194504  0.76621847  0.52052334  1
  H  H140  1  0.40164568  0.69917491  0.51532919  1
  H  H141  1  0.43446938  0.70424461  0.46510730  1
  H  H142  1  0.40865225  0.83712884  0.42669333  1
  H  H143  1  0.41781697  0.85823158  0.43892331  1
  H  H144  1  0.40131618  0.86021091  0.38590268  1
  H  H145  1  0.39660618  0.88317569  0.33556867  1
  H  H146  1  0.45205798  0.87432691  0.29954628  1
  H  H147  1  0.45624814  0.85120385  0.34972625  1
  H  H148  1  0.40862356  0.90160194  0.28075690  1
  H  H149  1  0.44712261  0.88874793  0.25668826  1
  H  H150  1  0.41542225  0.51618701  0.52635964  1
  H  H151  1  0.32989805  0.55929188  0.51941357  1
  H  H152  1  0.35219123  0.58582280  0.52258935  1
  H  H153  1  0.35915225  0.55231433  0.52517414  1
  H  H154  1  0.38722835  0.57028008  0.52254868  1
  H  H155  1  0.38824032  0.53599180  0.52575805  1
  H  H156  1  0.41848407  0.55031176  0.52326034  1
  H  H157  1  0.41509679  0.51520632  0.47593553  1
  H  H158  1  0.32744012  0.56372046  0.47027019  1
  H  H159  1  0.35221872  0.58527518  0.47207370  1
  H  H160  1  0.35866605  0.55112610  0.47488878  1
  H  H161  1  0.38682310  0.56922259  0.47205860  1
  H  H162  1  0.38773469  0.53488598  0.47551712  1
  H  H163  1  0.41797924  0.54929738  0.47276208  1
  H  H164  1  0.54281371  0.43279014  0.52593208  1
  H  H165  1  0.58883875  0.34347906  0.52660383  1
  H  H166  1  0.55475252  0.34268064  0.52613744  1
  H  H167  1  0.57086744  0.37226979  0.52679670  1
  H  H168  1  0.53699975  0.37383223  0.52670920  1
  H  H169  1  0.55488434  0.40227950  0.52630292  1
  H  H170  1  0.52116863  0.40699343  0.52638079  1
  H  H171  1  0.54269937  0.43263778  0.47538365  1
  H  H172  1  0.58904615  0.34355558  0.47672413  1
  H  H173  1  0.55488821  0.34298593  0.47567306  1
  H  H174  1  0.57089468  0.37240843  0.47645352  1
  H  H175  1  0.53691090  0.37374008  0.47623787  1
  H  H176  1  0.55480232  0.40216133  0.47597927  1
  H  H177  1  0.52107407  0.40683969  0.47584407  1
  H  H178  1  0.59243855  0.49809515  0.52567612  1
  H  H179  1  0.67542943  0.45524590  0.51996041  1
  H  H180  1  0.65467610  0.42806586  0.52616773  1
  H  H181  1  0.64733790  0.46152905  0.52579619  1
  H  H182  1  0.61922939  0.44370463  0.52580903  1
  H  H183  1  0.61924756  0.47805791  0.52573494  1
  H  H184  1  0.58891631  0.46402141  0.52575736  1
  H  H185  1  0.59240118  0.49810085  0.47520676  1
  H  H186  1  0.67668605  0.45123130  0.47057251  1
  H  H187  1  0.65381282  0.42752258  0.47549848  1
  H  H188  1  0.64722577  0.46174551  0.47547720  1
  H  H189  1  0.61917734  0.44376498  0.47514892  1
  H  H190  1  0.61921020  0.47811353  0.47547844  1
  H  H191  1  0.58888031  0.46402836  0.47517726  1
  H  H192  1  0.49505292  0.59573479  0.47418399  1
  H  H193  1  0.45179523  0.68151600  0.48157127  1
  H  H194  1  0.42579262  0.65857458  0.47338039  1
  H  H195  1  0.45895099  0.65206061  0.47413706  1
  H  H196  1  0.44127527  0.62357052  0.47396336  1
  H  H197  1  0.47521851  0.62293279  0.47392478  1
  H  H198  1  0.46132960  0.59221676  0.47400035  1
  H  H199  1  0.49507152  0.59580908  0.52465566  1
  H  H200  1  0.44533847  0.68360102  0.52964621  1
  H  H201  1  0.42515371  0.65800008  0.52385236  1
  H  H202  1  0.45909156  0.65208023  0.52449038  1
  H  H203  1  0.44137000  0.62348860  0.52450078  1
  H  H204  1  0.47536721  0.62297262  0.52423296  1
  H  H205  1  0.46135335  0.59227238  0.52455305  1
  C  C206  1  0.98678432  0.49297850  0.07247811  1
  C  C207  1  0.02178542  0.52014662  0.92635989  1
  C  C208  1  0.02019746  0.52087549  0.06870593  1
  C  C209  1  0.98798536  0.49195640  0.92941815  1
  C  C210  1  0.49081495  0.98941058  0.92799411  1
  C  C211  1  0.51765605  0.02429362  0.07428869  1
  C  C212  1  0.51876386  0.02258198  0.93171922  1
  C  C213  1  0.48965772  0.99062887  0.06993313  1
  C  C214  1  0.49718265  0.50006291  0.50000983  1
  C  C215  1  0.51023748  0.51279213  0.50005670  1
  C  C216  1  0.50472605  0.53265483  0.49989984  1
  C  C217  1  0.52979927  0.50689780  0.50017162  1
  C  C218  1  0.50248316  0.48016573  0.50022575  1
  C  C219  1  0.47766236  0.50615757  0.50001024  1
  C  C220  1  0.50071665  0.54182113  0.46543945  1
  C  C221  1  0.49440505  0.55983560  0.46544554  1
  C  C222  1  0.49202284  0.56960431  0.49961664  1
  C  C223  1  0.49454978  0.55994054  0.53394138  1
  C  C224  1  0.50086777  0.54192785  0.53422070  1
  C  C225  1  0.53893608  0.50298365  0.46581148  1
  C  C226  1  0.55686318  0.49694244  0.46604452  1
  C  C227  1  0.56654143  0.49482124  0.50034666  1
  C  C228  1  0.55692620  0.49701341  0.53456763  1
  C  C229  1  0.53900202  0.50306552  0.53463104  1
  C  C230  1  0.50594572  0.47083394  0.53477213  1
  C  C231  1  0.51329952  0.45322111  0.53468297  1
  C  C232  1  0.51931644  0.44507242  0.50056663  1
  C  C233  1  0.51319686  0.45309943  0.46629532  1
  C  C234  1  0.50583338  0.47070855  0.46586910  1
  C  C235  1  0.46868527  0.51025162  0.53443586  1
  C  C236  1  0.45085563  0.51663672  0.53441281  1
  C  C237  1  0.44110038  0.51908923  0.50025824  1
  C  C238  1  0.45063494  0.51663914  0.46595636  1
  C  C239  1  0.46847893  0.51028468  0.46569603  1
  C  C240  1  0.10973556  0.58075518  0.26073090  1
  C  C241  1  0.11707746  0.56785555  0.28562383  1
  C  C242  1  0.12907181  0.57040635  0.31729206  1
  C  C243  1  0.13474831  0.55472824  0.33820490  1
  C  C244  1  0.14640637  0.55575362  0.36884180  1
  C  C245  1  0.15248215  0.57269816  0.38023755  1
  C  C246  1  0.14739615  0.58849035  0.36008445  1
  C  C247  1  0.13573658  0.58743362  0.32909854  1
  C  C248  1  0.16578395  0.55805295  0.43492642  1
  C  C249  1  0.17604910  0.56360072  0.46957016  1
  C  C250  1  0.19499101  0.56290526  0.46809761  1
  C  C251  1  0.20453198  0.56998409  0.49929166  1
  C  C252  1  0.19556384  0.57859654  0.53023161  1
  C  C253  1  0.17657707  0.57984234  0.53016698  1
  C  C254  1  0.16664579  0.57172567  0.50065833  1
  C  C255  1  0.14644187  0.57155787  0.49999774  1
  C  C256  1  0.20509006  0.55467026  0.43480592  1
  C  C257  1  0.20688233  0.58660379  0.56121043  1
  C  C258  1  0.22459234  0.57000216  0.49794192  1
  C  C259  1  0.24804463  0.59028289  0.48562222  1
  C  C260  1  0.25997392  0.57532781  0.48913244  1
  C  C261  1  0.27831272  0.57797906  0.48817706  1
  C  C262  1  0.28547315  0.59557376  0.48678897  1
  C  C263  1  0.27298904  0.61042648  0.48135567  1
  C  C264  1  0.25453670  0.60772941  0.48005104  1
  C  C265  1  0.30488184  0.59654433  0.49076182  1
  C  C266  1  0.31395650  0.58242387  0.50891399  1
  C  C267  1  0.16729022  0.58957871  0.56263838  1
  C  C268  1  0.15606133  0.58129461  0.62408174  1
  C  C269  1  0.14733970  0.59834121  0.62820999  1
  C  C270  1  0.13475470  0.60102073  0.65697324  1
  C  C271  1  0.13057679  0.58684084  0.68283347  1
  C  C272  1  0.14000587  0.56987092  0.67823604  1
  C  C273  1  0.15285714  0.56733863  0.64989480  1
  C  C274  1  0.11718852  0.58902541  0.71213009  1
  C  C275  1  0.11401571  0.57527089  0.73802106  1
  C  C276  1  0.57702628  0.11402783  0.26632132  1
  C  C277  1  0.59242927  0.11522923  0.28842098  1
  C  C278  1  0.59377487  0.12742860  0.32029862  1
  C  C279  1  0.60990209  0.12860866  0.34202390  1
  C  C280  1  0.61103591  0.14000220  0.37343298  1
  C  C281  1  0.59600439  0.15075699  0.38406698  1
  C  C282  1  0.58002928  0.15016252  0.36304720  1
  C  C283  1  0.57883904  0.13863165  0.33186679  1
  C  C284  1  0.61087513  0.16193082  0.44100062  1
  C  C285  1  0.60474738  0.17355620  0.47397474  1
  C  C286  1  0.60493164  0.19264023  0.46966691  1
  C  C287  1  0.59744125  0.20367329  0.49880416  1
  C  C288  1  0.58934617  0.19598360  0.53128234  1
  C  C289  1  0.58846832  0.17690467  0.53380663  1
  C  C290  1  0.59635629  0.16546902  0.50565962  1
  C  C291  1  0.59581967  0.14508203  0.50722975  1
  C  C292  1  0.61379332  0.20081037  0.43546654  1
  C  C293  1  0.58174185  0.20878135  0.56105092  1
  C  C294  1  0.59737559  0.22393142  0.49565746  1
  C  C295  1  0.57692888  0.24907709  0.48784198  1
  C  C296  1  0.59161183  0.26017869  0.49334371  1
  C  C297  1  0.58893585  0.27883860  0.49605733  1
  C  C298  1  0.57157565  0.28707331  0.49225425  1
  C  C299  1  0.55699582  0.27551035  0.48548212  1
  C  C300  1  0.55958992  0.25674465  0.48339302  1
  C  C301  1  0.56900904  0.30667852  0.49482516  1
  C  C302  1  0.58269855  0.31822511  0.50126430  1
  C  C303  1  0.57963406  0.16909450  0.56817786  1
  C  C304  1  0.58759671  0.15692762  0.62853153  1
  C  C305  1  0.56937489  0.15356254  0.63417801  1
  C  C306  1  0.56448037  0.14165123  0.66250692  1
  C  C307  1  0.57743977  0.13333792  0.68728431  1
  C  C308  1  0.59576692  0.13776088  0.68200497  1
  C  C309  1  0.60071016  0.14965110  0.65330021  1
  C  C310  1  0.57138828  0.12116466  0.71624604  1
  C  C311  1  0.58185109  0.11193817  0.74326259  1
  C  C312  1  0.89745158  0.43372304  0.73847542  1
  C  C313  1  0.89604312  0.41825565  0.71628831  1
  C  C314  1  0.88380658  0.41702350  0.68451946  1
  C  C315  1  0.88254165  0.40077515  0.66282262  1
  C  C316  1  0.87114701  0.39967607  0.63149759  1
  C  C317  1  0.86048449  0.41488147  0.62084433  1
  C  C318  1  0.86112843  0.43097414  0.64190075  1
  C  C319  1  0.87264292  0.43211845  0.67302898  1
  C  C320  1  0.84929748  0.39985133  0.56408937  1
  C  C321  1  0.83774249  0.40590165  0.53092639  1
  C  C322  1  0.81888368  0.40534656  0.53489961  1
  C  C323  1  0.80795203  0.41231245  0.50505362  1
  C  C324  1  0.81535126  0.42094058  0.47287819  1
  C  C325  1  0.83420055  0.42215080  0.47060526  1
  C  C326  1  0.84559416  0.41435557  0.49900614  1
  C  C327  1  0.86574654  0.41505411  0.49748301  1
  C  C328  1  0.81072312  0.39671281  0.56940148  1
  C  C329  1  0.80255261  0.42870707  0.44326205  1
  C  C330  1  0.78795961  0.41186026  0.50799639  1
  C  C331  1  0.76313121  0.43245076  0.51615724  1
  C  C332  1  0.75183374  0.41780760  0.51054238  1
  C  C333  1  0.73335531  0.42090513  0.50836759  1
  C  C334  1  0.72587818  0.43860537  0.51310170  1
  C  C335  1  0.73773332  0.45314544  0.51884759  1
  C  C336  1  0.75615787  0.45014871  0.52046270  1
  C  C337  1  0.70683776  0.44325238  0.51223350  1
  C  C338  1  0.69229302  0.43302917  0.50499613  1
  C  C339  1  0.84178079  0.43115270  0.43615022  1
  C  C340  1  0.85375576  0.42312621  0.37587155  1
  C  C341  1  0.85701863  0.44154764  0.37003365  1
  C  C342  1  0.86881991  0.44651188  0.34180127  1
  C  C343  1  0.87709565  0.43343237  0.31723881  1
  C  C344  1  0.87275744  0.41490028  0.32265727  1
  C  C345  1  0.86098688  0.40988548  0.35129171  1
  C  C346  1  0.88913053  0.43962469  0.28833974  1
  C  C347  1  0.89824347  0.42912617  0.26136195  1
  C  C348  1  0.42979932  0.90053750  0.73551064  1
  C  C349  1  0.44271985  0.89332889  0.71089177  1
  C  C350  1  0.44032524  0.88135767  0.67907269  1
  C  C351  1  0.45591605  0.87571966  0.65848340  1
  C  C352  1  0.45497905  0.86407480  0.62772765  1
  C  C353  1  0.43822209  0.85802402  0.61590868  1
  C  C354  1  0.42253219  0.86302436  0.63578047  1
  C  C355  1  0.42349486  0.87468020  0.66687321  1
  C  C356  1  0.45284341  0.84522730  0.56113013  1
  C  C357  1  0.44744348  0.83500919  0.52633960  1
  C  C358  1  0.44814042  0.81587932  0.52797392  1
  C  C359  1  0.44111219  0.80629311  0.49678980  1
  C  C360  1  0.43242172  0.81535230  0.46592213  1
  C  C361  1  0.43109975  0.83452568  0.46598797  1
  C  C362  1  0.43921897  0.84454824  0.49537622  1
  C  C363  1  0.43925253  0.86496565  0.49611823  1
  C  C364  1  0.45615967  0.80560847  0.56150495  1
  C  C365  1  0.42436793  0.80394001  0.43508012  1
  C  C366  1  0.44088715  0.78607468  0.49856704  1
  C  C367  1  0.42053341  0.76282196  0.51153212  1
  C  C368  1  0.43526582  0.75065626  0.50849829  1
  C  C369  1  0.43245279  0.73219259  0.50922295  1
  C  C370  1  0.41493003  0.72516661  0.51010254  1
  C  C371  1  0.40032213  0.73787266  0.51532519  1
  C  C372  1  0.40317278  0.75647220  0.51671384  1
  C  C373  1  0.41381644  0.70565366  0.50570867  1
  C  C374  1  0.42778064  0.69659219  0.48755892  1
  C  C375  1  0.42134353  0.84385581  0.43349276  1
  C  C376  1  0.42942652  0.85499745  0.37186469  1
  C  C377  1  0.41249565  0.86366499  0.36744608  1
  C  C378  1  0.40977841  0.87634424  0.33852343  1
  C  C379  1  0.42380170  0.88066688  0.31284488  1
  C  C380  1  0.44067246  0.87127912  0.31773086  1
  C  C381  1  0.44325269  0.85833904  0.34625831  1
  C  C382  1  0.42147099  0.89413883  0.28337196  1
  C  C383  1  0.43508155  0.89773839  0.25789227  1
  C  C384  1  0.42070394  0.52270386  0.50040645  1
  C  C385  1  0.33022685  0.57031558  0.49799910  1
  C  C386  1  0.34971724  0.57709949  0.49772795  1
  C  C387  1  0.36233047  0.55995772  0.49902885  1
  C  C388  1  0.38292728  0.56198308  0.49817019  1
  C  C389  1  0.39256753  0.54307010  0.49968182  1
  C  C390  1  0.41328343  0.54258656  0.49887246  1
  C  C391  1  0.53423283  0.43026492  0.50072508  1
  C  C392  1  0.58132150  0.33861330  0.50149617  1
  C  C393  1  0.56236268  0.34735119  0.50115886  1
  C  C394  1  0.56313509  0.36800581  0.50150174  1
  C  C395  1  0.54473835  0.37789492  0.50142534  1
  C  C396  1  0.54678889  0.39849671  0.50119175  1
  C  C397  1  0.52929031  0.41007944  0.50104966  1
  C  C398  1  0.58686139  0.49116849  0.50042912  1
  C  C399  1  0.67530497  0.44417320  0.49850539  1
  C  C400  1  0.65642376  0.43627647  0.50023702  1
  C  C401  1  0.64379693  0.45335106  0.50052216  1
  C  C402  1  0.62339431  0.45141474  0.50051533  1
  C  C403  1  0.61444781  0.47053086  0.50056119  1
  C  C404  1  0.59390358  0.47121211  0.50047988  1
  C  C405  1  0.48820805  0.59015583  0.49943113  1
  C  C406  1  0.44006205  0.68077563  0.50071370  1
  C  C407  1  0.43379928  0.66094220  0.49930240  1
  C  C408  1  0.45089319  0.64851414  0.49935725  1
  C  C409  1  0.44899465  0.62773397  0.49924918  1
  C  C410  1  0.46778166  0.61823498  0.49915544  1
  C  C411  1  0.46843352  0.59733758  0.49927721  1
  C  C412  1  0.05967129  0.54588526  0.86366717  1
  C  C413  1  0.07866370  0.56130711  0.81615094  1
  C  C414  1  0.04842643  0.53721703  0.88993094  1
  C  C415  1  0.03710731  0.52956776  0.90904044  1
  C  C416  1  0.08962727  0.56952237  0.78849403  1
  C  C417  1  0.09987636  0.57499535  0.76382879  1
  C  C418  1  0.54095320  0.06182865  0.86621761  1
  C  C419  1  0.55724677  0.08092099  0.82041147  1
  C  C420  1  0.53191768  0.05024820  0.89113336  1
  C  C421  1  0.52503634  0.03847095  0.91049559  1
  C  C422  1  0.56653411  0.09150083  0.79389555  1
  C  C423  1  0.57400783  0.10099026  0.77022003  1
  C  C424  1  0.94873579  0.46789790  0.13595065  1
  C  C425  1  0.92928829  0.45288151  0.18315929  1
  C  C426  1  0.96018529  0.47624525  0.10969179  1
  C  C427  1  0.97150338  0.48372794  0.09030273  1
  C  C428  1  0.91844505  0.44414770  0.21004531  1
  C  C429  1  0.90893869  0.43708072  0.23418139  1
  C  C430  1  0.46675212  0.95147587  0.13451991  1
  C  C431  1  0.45006093  0.93295478  0.18076356  1
  C  C432  1  0.47600810  0.96284568  0.10949551  1
  C  C433  1  0.48295126  0.97464312  0.09027199  1
  C  C434  1  0.44107261  0.92225858  0.20781173  1
  C  C435  1  0.43482551  0.91197198  0.23170389  1
  C  C436  1  0.54358128  0.06234227  0.13726264  1
  C  C437  1  0.55906053  0.08096617  0.18559092  1
  C  C438  1  0.53483516  0.05098454  0.11121800  1
  C  C439  1  0.52706110  0.03960117  0.09225353  1
  C  C440  1  0.56765860  0.09138406  0.21376946  1
  C  C441  1  0.57433531  0.10091524  0.23853011  1
  C  C442  1  0.05899166  0.54353775  0.13418475  1
  C  C443  1  0.07823549  0.56009554  0.17942944  1
  C  C444  1  0.04768113  0.53410193  0.10925861  1
  C  C445  1  0.03610140  0.52716697  0.08953858  1
  C  C446  1  0.08905169  0.56907144  0.20612608  1
  C  C447  1  0.09862533  0.57535657  0.23129395  1
  C  C448  1  0.94898141  0.46906329  0.86449797  1
  C  C449  1  0.93049792  0.45239255  0.81785508  1
  C  C450  1  0.96039820  0.47829076  0.88957864  1
  C  C451  1  0.97210019  0.48534674  0.90879267  1
  C  C452  1  0.92019634  0.44314959  0.79043630  1
  C  C453  1  0.91055780  0.43622387  0.76623986  1
  C  C454  1  0.46557880  0.95123853  0.86441518  1
  C  C455  1  0.45007537  0.93204157  0.81737650  1
  C  C456  1  0.47403842  0.96264715  0.89074754  1
  C  C457  1  0.48151795  0.97406243  0.91014263  1
  C  C458  1  0.44119380  0.92128560  0.79039919  1
  C  C459  1  0.43495200  0.91157329  0.76535977  1
  N  N460  1  0.05167932  0.54966802  0.82891093  1
  N  N461  1  0.06158959  0.55778385  0.80420269  1
  N  N462  1  0.08670475  0.55746021  0.85044945  1
  N  N463  1  0.07684869  0.54939136  0.87552262  1
  N  N464  1  0.55925357  0.06230789  0.87150609  1
  N  N465  1  0.56781676  0.07216560  0.84732219  1
  N  N466  1  0.53889491  0.08114360  0.81622607  1
  N  N467  1  0.53031166  0.07124608  0.84033586  1
  N  N468  1  0.93096118  0.46682858  0.12575615  1
  N  N469  1  0.92082392  0.45896889  0.15056328  1
  N  N470  1  0.94698978  0.45429936  0.19372824  1
  N  N471  1  0.95713016  0.46211253  0.16907420  1
  N  N472  1  0.47568972  0.94743513  0.16812121  1
  N  N473  1  0.46681865  0.93787038  0.19225858  1
  N  N474  1  0.44148659  0.93617109  0.14679546  1
  N  N475  1  0.45026971  0.94580111  0.12237901  1
  N  N476  1  0.56152400  0.05814112  0.14289136  1
  N  N477  1  0.56958540  0.06776362  0.16843881  1
  N  N478  1  0.54140999  0.08578030  0.17874071  1
  N  N479  1  0.53325658  0.07614332  0.15336273  1
  N  N480  1  0.07718331  0.54110683  0.12877876  1
  N  N481  1  0.08721554  0.54984008  0.15253158  1
  N  N482  1  0.06004689  0.56303669  0.18400304  1
  N  N483  1  0.04999832  0.55436115  0.16038633  1
  N  N484  1  0.94678356  0.45096675  0.87222196  1
  N  N485  1  0.93723834  0.44220006  0.84760372  1
  N  N486  1  0.93168244  0.47067406  0.81145371  1
  N  N487  1  0.94124038  0.47948699  0.83585351  1
  N  N488  1  0.46148494  0.93420021  0.87702936  1
  N  N489  1  0.45331027  0.92418850  0.85228266  1
  N  N490  1  0.45472676  0.94884559  0.80430399  1
  N  N491  1  0.46289830  0.95885312  0.82883321  1
  O  O492  1  0.02251738  0.51108488  0.03961725  1
  O  O493  1  0.00639550  0.52795837  0.08426874  1
  O  O494  1  0.98695167  0.49509224  0.03689068  1
  O  O495  1  0.99738373  0.49671896  0.09924915  1
  O  O496  1  0.98562191  0.50168436  0.95861086  1
  O  O497  1  1.00182384  0.48512159  0.91359716  1
  O  O498  1  0.02133389  0.51797469  0.96190802  1
  O  O499  1  0.01141245  0.51634102  0.89922903  1
  O  O500  1  0.50907026  0.02523834  0.96066839  1
  O  O501  1  0.52569113  0.00846063  0.91666406  1
  O  O502  1  0.49295622  0.98952084  0.96358287  1
  O  O503  1  0.49457795  1.00010621  0.90132545  1
  O  O504  1  0.49961868  0.98813521  0.04134636  1
  O  O505  1  0.48273165  0.00467934  0.08525693  1
  O  O506  1  0.51570369  0.02405292  0.03865755  1
  O  O507  1  0.51366828  0.01371653  0.10099960  1
  O  O508  1  0.16358720  0.57422452  0.41081410  1
  O  O509  1  0.16812283  0.57763012  0.59578902  1
  O  O510  1  0.22996363  0.58821222  0.48717899  1
  O  O511  1  0.59601223  0.16269242  0.41365064  1
  O  O512  1  0.59285299  0.16739720  0.59888369  1
  O  O513  1  0.57911772  0.23066927  0.48709727  1
  O  O514  1  0.84864476  0.41492333  0.59118566  1
  O  O515  1  0.84344587  0.41779959  0.40554496  1
  O  O516  1  0.78130953  0.43015792  0.51719533  1
  O  O517  1  0.43679794  0.84702767  0.58507288  1
  O  O518  1  0.43308300  0.84284419  0.40032605  1
  O  O519  1  0.42281874  0.78103667  0.50976834  1
