# generated using pymatgen
data_H130C197NO6
_symmetry_space_group_name_H-M   'P 1'
_cell_length_a   87.40047451
_cell_length_b   87.29615844
_cell_length_c   48.26352388
_cell_angle_alpha   90.02052453
_cell_angle_beta   90.08799868
_cell_angle_gamma   102.53743414
_symmetry_Int_Tables_number   1
_chemical_formula_structural   H130C197NO6
_chemical_formula_sum   'H260 C394 N2 O12'
_cell_volume   359456.08567504
_cell_formula_units_Z   2
loop_
 _symmetry_equiv_pos_site_id
 _symmetry_equiv_pos_as_xyz
  1  'x, y, z'
loop_
 _atom_site_type_symbol
 _atom_site_label
 _atom_site_symmetry_multiplicity
 _atom_site_fract_x
 _atom_site_fract_y
 _atom_site_fract_z
 _atom_site_occupancy
  H  H0  1  0.02600737  0.47277662  0.96900365  1
  H  H1  1  0.04219281  0.47697186  0.92667247  1
  H  H2  1  0.04163207  0.52613999  0.92831555  1
  H  H3  1  0.02546648  0.52218098  0.97064579  1
  H  H4  1  0.02597454  0.47275796  0.03117404  1
  H  H5  1  0.04219432  0.47692526  0.07359921  1
  H  H6  1  0.02540748  0.52216961  0.02979912  1
  H  H7  1  0.99025482  0.51364328  0.03128420  1
  H  H8  1  0.97405379  0.50953283  0.07360414  1
  H  H9  1  0.97455202  0.46035693  0.07223844  1
  H  H10  1  0.99070500  0.46422610  0.02987981  1
  H  H11  1  0.99016055  0.51360426  0.96881895  1
  H  H12  1  0.97395020  0.50950130  0.92645377  1
  H  H13  1  0.97451536  0.46034267  0.92766245  1
  H  H14  1  0.99068087  0.46421606  0.97006428  1
  H  H15  1  0.04158612  0.52607884  0.07223784  1
  H  H16  1  0.46363027  0.99050754  0.97027658  1
  H  H17  1  0.45974492  0.97431799  0.92788086  1
  H  H18  1  0.50884838  0.97376897  0.92665685  1
  H  H19  1  0.51298361  0.99000965  0.96901477  1
  H  H20  1  0.46363772  0.99044310  0.02988658  1
  H  H21  1  0.45977111  0.97425271  0.07223601  1
  H  H22  1  0.51298956  0.98997844  0.03136008  1
  H  H23  1  0.52150688  0.02529367  0.02998719  1
  H  H24  1  0.52548367  0.04148487  0.07234410  1
  H  H25  1  0.47639872  0.04211450  0.07380844  1
  H  H26  1  0.47218522  0.02587740  0.03148371  1
  H  H27  1  0.52147962  0.02526913  0.97074205  1
  H  H28  1  0.52540152  0.04145642  0.92836677  1
  H  H29  1  0.47629158  0.04200947  0.92672047  1
  H  H30  1  0.47212652  0.02579041  0.96908748  1
  H  H31  1  0.50889684  0.97376920  0.07370308  1
  H  H32  1  0.56895905  0.46686060  0.50000588  1
  H  H33  1  0.58409493  0.51732794  0.51235607  1
  H  H34  1  0.55694359  0.52025533  0.50342978  1
  H  H35  1  0.50033647  0.47506537  0.48632311  1
  H  H36  1  0.49460338  0.44590376  0.48406842  1
  H  H37  1  0.54130911  0.44688321  0.51373259  1
  H  H38  1  0.53339757  0.51340700  0.53202882  1
  H  H39  1  0.51549056  0.53233692  0.53453656  1
  H  H40  1  0.49326958  0.51350834  0.45836406  1
  H  H41  1  0.51255070  0.49570374  0.45396042  1
  H  H42  1  0.51903335  0.55530219  0.49112087  1
  H  H43  1  0.51676148  0.58300748  0.48596851  1
  H  H44  1  0.46672637  0.56920624  0.50327816  1
  H  H45  1  0.44748170  0.54387637  0.51958832  1
  H  H46  1  0.47337477  0.49924070  0.50925047  1
  H  H47  1  0.44430401  0.49416989  0.51302808  1
  H  H48  1  0.15530573  0.55286672  0.33260415  1
  H  H49  1  0.14310633  0.51723234  0.34366837  1
  H  H50  1  0.15351272  0.50556513  0.38137413  1
  H  H51  1  0.17172830  0.50656543  0.42051100  1
  H  H52  1  0.18927267  0.55614967  0.40668141  1
  H  H53  1  0.17129844  0.55521907  0.36676984  1
  H  H54  1  0.19339358  0.50928993  0.44389414  1
  H  H55  1  0.17777905  0.51508111  0.46146395  1
  H  H56  1  0.17384014  0.53762049  0.51999414  1
  H  H57  1  0.17014573  0.51893230  0.50452844  1
  H  H58  1  0.17346534  0.53599793  0.48359753  1
  H  H59  1  0.21552286  0.51633882  0.43468971  1
  H  H60  1  0.22328901  0.50452417  0.45830239  1
  H  H61  1  0.23476829  0.52271429  0.44688742  1
  H  H62  1  0.22716442  0.55082845  0.56086373  1
  H  H63  1  0.24209246  0.55482484  0.53527289  1
  H  H64  1  0.23832528  0.53682713  0.55342443  1
  H  H65  1  0.24865850  0.52841943  0.51678709  1
  H  H66  1  0.24696144  0.52452866  0.48058963  1
  H  H67  1  0.26926248  0.52510232  0.49652696  1
  H  H68  1  0.29735229  0.52867724  0.49939800  1
  H  H69  1  0.30238753  0.57877144  0.48716817  1
  H  H70  1  0.27354750  0.57482569  0.48479128  1
  H  H71  1  0.32679458  0.56774866  0.49305392  1
  H  H72  1  0.31940723  0.53169237  0.50264240  1
  H  H73  1  0.20739608  0.55673113  0.55422789  1
  H  H74  1  0.18786335  0.54963635  0.54331705  1
  H  H75  1  0.19083077  0.56335610  0.58117003  1
  H  H76  1  0.17272171  0.56877209  0.61681582  1
  H  H77  1  0.16417103  0.51995712  0.64248499  1
  H  H78  1  0.18184153  0.51475048  0.60587195  1
  H  H79  1  0.15496050  0.56010473  0.65672628  1
  H  H80  1  0.15039102  0.52456613  0.66987313  1
  H  H81  1  0.52795592  0.15202644  0.33524887  1
  H  H82  1  0.56330799  0.15182071  0.34104782  1
  H  H83  1  0.57705412  0.16746689  0.37923518  1
  H  H84  1  0.57764151  0.18547867  0.41848654  1
  H  H85  1  0.52841073  0.18417859  0.40712801  1
  H  H86  1  0.52762256  0.16634485  0.36735962  1
  H  H87  1  0.57621091  0.20670059  0.44323478  1
  H  H88  1  0.56975158  0.18861356  0.46073159  1
  H  H89  1  0.54657856  0.17588612  0.51940137  1
  H  H90  1  0.56529819  0.17928514  0.50423692  1
  H  H91  1  0.54833502  0.17620609  0.48303438  1
  H  H92  1  0.57065391  0.22656287  0.43473939  1
  H  H93  1  0.58280819  0.23908991  0.45849834  1
  H  H94  1  0.56490976  0.24337051  0.44709539  1
  H  H95  1  0.53651095  0.22468266  0.56088839  1
  H  H96  1  0.53316424  0.23816599  0.53524100  1
  H  H97  1  0.55109124  0.24147671  0.55355113  1
  H  H98  1  0.56050689  0.25518506  0.51758029  1
  H  H99  1  0.56487146  0.25513925  0.48160373  1
  H  H100  1  0.56455436  0.27772800  0.49673123  1
  H  H101  1  0.56095246  0.30461848  0.49928976  1
  H  H102  1  0.51109898  0.28799641  0.48650405  1
  H  H103  1  0.51484113  0.26064332  0.48433805  1
  H  H104  1  0.52095137  0.31556834  0.49199584  1
  H  H105  1  0.55669355  0.32796563  0.50137546  1
  H  H106  1  0.52940483  0.20247099  0.55372394  1
  H  H107  1  0.53557884  0.18545794  0.54296935  1
  H  H108  1  0.52165609  0.18328833  0.57969116  1
  H  H109  1  0.51464453  0.16259650  0.61476962  1
  H  H110  1  0.56274614  0.17248369  0.64363994  1
  H  H111  1  0.56979552  0.19267786  0.60722344  1
  H  H112  1  0.52091568  0.14821889  0.65371275  1
  H  H113  1  0.55563230  0.15497164  0.67314028  1
  H  H114  1  0.86393160  0.46090929  0.66527431  1
  H  H115  1  0.86218117  0.42514366  0.65939214  1
  H  H116  1  0.84594372  0.41213815  0.62128850  1
  H  H117  1  0.82817997  0.41256380  0.58198730  1
  H  H118  1  0.83227695  0.46231251  0.59320271  1
  H  H119  1  0.84988713  0.46210556  0.63300661  1
  H  H120  1  0.80739843  0.41521515  0.55707395  1
  H  H121  1  0.82558222  0.42073845  0.53962078  1
  H  H122  1  0.83943159  0.44343995  0.48091398  1
  H  H123  1  0.83500719  0.42468741  0.49610162  1
  H  H124  1  0.83901985  0.44167655  0.51728212  1
  H  H125  1  0.78816347  0.42199160  0.56555281  1
  H  H126  1  0.77511574  0.41042556  0.54179231  1
  H  H127  1  0.77194324  0.42878634  0.55318202  1
  H  H128  1  0.79196187  0.45651233  0.43942055  1
  H  H129  1  0.77889414  0.46066926  0.46507615  1
  H  H130  1  0.77457691  0.44273035  0.44674873  1
  H  H131  1  0.76053112  0.43398883  0.48272033  1
  H  H132  1  0.76032962  0.42953702  0.51868597  1
  H  H133  1  0.73800926  0.43121983  0.50362374  1
  H  H134  1  0.71175885  0.43649419  0.50107300  1
  H  H135  1  0.73114464  0.48595506  0.51385066  1
  H  H136  1  0.75782315  0.48051103  0.51599739  1
  H  H137  1  0.70348349  0.47774524  0.50842716  1
  H  H138  1  0.68893949  0.44235842  0.49905525  1
  H  H139  1  0.81424649  0.46237140  0.44654190  1
  H  H140  1  0.83063943  0.45513239  0.45731986  1
  H  H141  1  0.83357107  0.46912020  0.42055371  1
  H  H142  1  0.85432371  0.47505100  0.38546391  1
  H  H143  1  0.84184583  0.42694971  0.35661887  1
  H  H144  1  0.82156470  0.42095524  0.39302767  1
  H  H145  1  0.86809428  0.46797518  0.34662657  1
  H  H146  1  0.85959036  0.43331311  0.32679613  1
  H  H147  1  0.43655395  0.85892057  0.66794574  1
  H  H148  1  0.47181485  0.87289403  0.65666194  1
  H  H149  1  0.48409074  0.86329914  0.61897537  1
  H  H150  1  0.48409136  0.84526629  0.57986769  1
  H  H151  1  0.43505475  0.82511047  0.59375296  1
  H  H152  1  0.43499778  0.84289535  0.63364671  1
  H  H153  1  0.48256559  0.82366086  0.55655354  1
  H  H154  1  0.47584190  0.83873891  0.53890257  1
  H  H155  1  0.45286728  0.84133869  0.48031822  1
  H  H156  1  0.47152585  0.84605409  0.49580414  1
  H  H157  1  0.45448992  0.84180794  0.51671457  1
  H  H158  1  0.47677997  0.80141080  0.56571103  1
  H  H159  1  0.48915498  0.79446529  0.54208796  1
  H  H160  1  0.47148539  0.78204213  0.55353390  1
  H  H161  1  0.44263209  0.78796459  0.43948356  1
  H  H162  1  0.43945618  0.77297188  0.46505559  1
  H  H163  1  0.45741964  0.77776184  0.44696797  1
  H  H164  1  0.46653668  0.76804386  0.48361907  1
  H  H165  1  0.47032268  0.76988616  0.51983468  1
  H  H166  1  0.47113440  0.74782124  0.50374933  1
  H  H167  1  0.46924188  0.71988624  0.50089796  1
  H  H168  1  0.41896488  0.71184873  0.51309546  1
  H  H169  1  0.42117742  0.74051867  0.51547558  1
  H  H170  1  0.43155865  0.68845898  0.50725101  1
  H  H171  1  0.46752079  0.69780192  0.49758221  1
  H  H172  1  0.43552525  0.80713591  0.44606233  1
  H  H173  1  0.44155422  0.82681657  0.45699067  1
  H  H174  1  0.42788152  0.82315819  0.41904343  1
  H  H175  1  0.42139114  0.84072217  0.38333530  1
  H  H176  1  0.47019481  0.85193445  0.35779011  1
  H  H177  1  0.47643947  0.83478808  0.39445895  1
  H  H178  1  0.42917221  0.85879769  0.34335964  1
  H  H179  1  0.46480322  0.86525593  0.33041539  1
  H  H180  1  0.38802918  0.50188029  0.51915191  1
  H  H181  1  0.40812607  0.54956773  0.49539406  1
  H  H182  1  0.43294719  0.54173182  0.48619064  1
  H  H183  1  0.41435146  0.49607103  0.52092151  1
  H  H184  1  0.54991565  0.40928081  0.49240275  1
  H  H185  1  0.50029234  0.38912765  0.49463642  1
  H  H186  1  0.49463392  0.41560097  0.49243651  1
  H  H187  1  0.54374186  0.43446673  0.47841536  1
  H  H188  1  0.60848960  0.45485601  0.51124845  1
  H  H189  1  0.63350474  0.50299914  0.50333844  1
  H  H190  1  0.60860330  0.51182693  0.50577865  1
  H  H191  1  0.58474238  0.46414035  0.52317270  1
  H  H192  1  0.45450851  0.60808588  0.49052440  1
  H  H193  1  0.50261474  0.63345039  0.49481184  1
  H  H194  1  0.51147406  0.60858653  0.49264488  1
  H  H195  1  0.46370922  0.58430348  0.47850128  1
  H  H196  1  0.05813952  0.52922338  0.84029307  1
  H  H197  1  0.07506597  0.53647910  0.80032657  1
  H  H198  1  0.10129685  0.50164708  0.82429468  1
  H  H199  1  0.08405968  0.49481108  0.86404008  1
  H  H200  1  0.11514775  0.50739137  0.79204827  1
  H  H201  1  0.13209189  0.51474738  0.75215876  1
  H  H202  1  0.10614978  0.54915956  0.72849418  1
  H  H203  1  0.08885877  0.54217541  0.76813454  1
  H  H204  1  0.52259944  0.05402365  0.83382463  1
  H  H205  1  0.52974264  0.07093649  0.79369259  1
  H  H206  1  0.50695631  0.10530293  0.83134963  1
  H  H207  1  0.50009497  0.08800012  0.87099864  1
  H  H208  1  0.51256190  0.11908171  0.79947153  1
  H  H209  1  0.51936473  0.13597121  0.75935863  1
  H  H210  1  0.54203038  0.10220454  0.72166258  1
  H  H211  1  0.53547629  0.08493920  0.76143963  1
  H  H212  1  0.96477702  0.47678095  0.17417738  1
  H  H213  1  0.94786846  0.47032454  0.21443719  1
  H  H214  1  0.90719151  0.46649227  0.16100669  1
  H  H215  1  0.92456873  0.47299646  0.12140874  1
  H  H216  1  0.89334635  0.46128691  0.19316728  1
  H  H217  1  0.87640854  0.45514514  0.23334805  1
  H  H218  1  0.91656852  0.45887337  0.28639194  1
  H  H219  1  0.93394024  0.46504511  0.24674724  1
  H  H220  1  0.45825144  0.95799237  0.16206362  1
  H  H221  1  0.45155079  0.94088056  0.20199266  1
  H  H222  1  0.48454779  0.91351167  0.17399356  1
  H  H223  1  0.49085268  0.93094311  0.13434327  1
  H  H224  1  0.47921940  0.89947244  0.20620471  1
  H  H225  1  0.47239224  0.88232302  0.24602720  1
  H  H226  1  0.43978647  0.90938437  0.27368260  1
  H  H227  1  0.44626287  0.92688852  0.23415800  1
  H  H228  1  0.48724533  0.06781035  0.15911114  1
  H  H229  1  0.49384464  0.08489553  0.19924010  1
  H  H230  1  0.54310223  0.09135332  0.17822832  1
  H  H231  1  0.53593844  0.07423883  0.13840321  1
  H  H232  1  0.54867645  0.10538049  0.21027873  1
  H  H233  1  0.55541258  0.12243434  0.25030980  1
  H  H234  1  0.50672950  0.11619130  0.27129747  1
  H  H235  1  0.49947997  0.09907643  0.23149299  1
  H  H236  1  0.05114869  0.51324635  0.17296340  1
  H  H237  1  0.06790762  0.52027585  0.21337959  1
  H  H238  1  0.10843509  0.51798376  0.16281023  1
  H  H239  1  0.09120183  0.51098766  0.12302768  1
  H  H240  1  0.12209128  0.52353079  0.19494624  1
  H  H241  1  0.13887735  0.53032920  0.23526943  1
  H  H242  1  0.09888738  0.53268239  0.28552473  1
  H  H243  1  0.08166074  0.52591291  0.24570866  1
  H  H244  1  0.92460995  0.46876744  0.87867194  1
  H  H245  1  0.90727376  0.46225313  0.83892996  1
  H  H246  1  0.94756403  0.47443448  0.78451930  1
  H  H247  1  0.96444324  0.48081929  0.82492697  1
  H  H248  1  0.93355530  0.46944169  0.75190206  1
  H  H249  1  0.91620662  0.46278799  0.71220972  1
  H  H250  1  0.87644747  0.45073157  0.76621795  1
  H  H251  1  0.89336093  0.45724436  0.80646826  1
  H  H252  1  0.45002164  0.93952308  0.86360933  1
  H  H253  1  0.44345241  0.92221781  0.82380387  1
  H  H254  1  0.49256757  0.93254539  0.80027650  1
  H  H255  1  0.49855328  0.94974749  0.84033052  1
  H  H256  1  0.48760810  0.91856164  0.76837948  1
  H  H257  1  0.48121684  0.90123245  0.72869966  1
  H  H258  1  0.43256819  0.89082627  0.75166406  1
  H  H259  1  0.43845509  0.90806789  0.79166445  1
  C  C260  1  1.00002129  0.49129662  0.00003613  1
  C  C261  1  0.01598974  0.49503209  0.00010602  1
  C  C262  1  0.02521734  0.49731388  0.97371461  1
  C  C263  1  0.02520018  0.49730768  0.02657246  1
  C  C264  1  0.99085698  0.48906019  0.02651430  1
  C  C265  1  0.99083959  0.48904507  0.97351478  1
  C  C266  1  0.02963075  0.48455301  0.96041576  1
  C  C267  1  0.03845351  0.48680843  0.93644437  1
  C  C268  1  0.04294797  0.50183793  0.92417772  1
  C  C269  1  0.03811701  0.51448524  0.93744054  1
  C  C270  1  0.02933801  0.51228787  0.96136779  1
  C  C271  1  0.02960868  0.48452518  0.03982466  1
  C  C272  1  0.03843972  0.48675582  0.06382714  1
  C  C273  1  0.04293243  0.50177558  0.07614247  1
  C  C274  1  0.03808150  0.51444510  0.06298824  1
  C  C275  1  0.02929812  0.51227174  0.03902305  1
  C  C276  1  0.98655868  0.50187070  0.03985443  1
  C  C277  1  0.97774229  0.49966754  0.06383305  1
  C  C278  1  0.97316889  0.48465287  0.07612385  1
  C  C279  1  0.97803591  0.47198606  0.06300088  1
  C  C280  1  0.98680473  0.47413281  0.03904477  1
  C  C281  1  0.98648349  0.50183153  0.96019887  1
  C  C282  1  0.97764208  0.49962294  0.93617795  1
  C  C283  1  0.97305418  0.48461698  0.92379129  1
  C  C284  1  0.97797477  0.47197645  0.93692435  1
  C  C285  1  0.98677105  0.47412668  0.96092074  1
  C  C286  1  0.49439252  0.01585847  0.00029342  1
  C  C287  1  0.49069429  0.99987010  0.00018959  1
  C  C288  1  0.48844649  0.99069048  0.97367524  1
  C  C289  1  0.48845239  0.99064789  0.02662459  1
  C  C290  1  0.49668046  0.02507231  0.02676957  1
  C  C291  1  0.49665462  0.02507801  0.97386294  1
  C  C292  1  0.47352452  0.98660778  0.96112154  1
  C  C293  1  0.47136336  0.97780682  0.93715557  1
  C  C294  1  0.48400045  0.97290992  0.92406871  1
  C  C295  1  0.49900517  0.97748475  0.93639943  1
  C  C296  1  0.50122319  0.98633250  0.96039086  1
  C  C297  1  0.47353741  0.98655311  0.03909581  1
  C  C298  1  0.47139334  0.97776099  0.06305331  1
  C  C299  1  0.48404458  0.97290708  0.07625130  1
  C  C300  1  0.49903709  0.97746915  0.06394153  1
  C  C301  1  0.50123682  0.98629992  0.03994955  1
  C  C302  1  0.51162765  0.02918883  0.03921483  1
  C  C303  1  0.51383880  0.03800387  0.06317070  1
  C  C304  1  0.50124567  0.04291854  0.07639339  1
  C  C305  1  0.48623026  0.03837461  0.06407327  1
  C  C306  1  0.48395846  0.02951033  0.04008050  1
  C  C307  1  0.51159794  0.02916236  0.96147572  1
  C  C308  1  0.51377329  0.03793834  0.93752578  1
  C  C309  1  0.50112265  0.04276588  0.92427508  1
  C  C310  1  0.48611707  0.03826882  0.93652509  1
  C  C311  1  0.48388532  0.02944627  0.96051787  1
  C  C312  1  0.56662803  0.47818497  0.50556652  1
  C  C313  1  0.57857657  0.49171205  0.50880664  1
  C  C314  1  0.57489322  0.50685851  0.50891477  1
  C  C315  1  0.55960631  0.50864055  0.50449027  1
  C  C316  1  0.54803615  0.49489755  0.50166573  1
  C  C317  1  0.55142243  0.48004241  0.50387740  1
  C  C318  1  0.53707114  0.46863932  0.49894523  1
  C  C319  1  0.52543350  0.47656125  0.49138756  1
  C  C320  1  0.50977102  0.46876418  0.48801474  1
  C  C321  1  0.50658245  0.45234150  0.48788207  1
  C  C322  1  0.51878038  0.44424018  0.49282177  1
  C  C323  1  0.53342891  0.45266035  0.50240614  1
  C  C324  1  0.52381227  0.50428190  0.49260544  1
  C  C325  1  0.52569538  0.51476463  0.51488919  1
  C  C326  1  0.51539487  0.52458349  0.51685442  1
  C  C327  1  0.50322602  0.52249596  0.49746961  1
  C  C328  1  0.50219547  0.51311629  0.47389236  1
  C  C329  1  0.51275099  0.50360194  0.47143467  1
  C  C330  1  0.47936107  0.55122077  0.49969707  1
  C  C331  1  0.49392660  0.54726578  0.49784077  1
  C  C332  1  0.50769041  0.55847998  0.49301257  1
  C  C333  1  0.50623919  0.57402368  0.49019409  1
  C  C334  1  0.49134544  0.57817385  0.49206014  1
  C  C335  1  0.47784468  0.56653350  0.49750076  1
  C  C336  1  0.45226271  0.53435811  0.51124358  1
  C  C337  1  0.46783797  0.53690275  0.50426033  1
  C  C338  1  0.47537603  0.52433778  0.50334915  1
  C  C339  1  0.46727673  0.50886380  0.50789609  1
  C  C340  1  0.45092742  0.50618674  0.51032532  1
  C  C341  1  0.44318547  0.51895142  0.50984431  1
  C  C342  1  0.14881779  0.54078371  0.32967334  1
  C  C343  1  0.15045552  0.52882323  0.34761899  1
  C  C344  1  0.16097079  0.53017998  0.37072745  1
  C  C345  1  0.16133643  0.51666805  0.38683972  1
  C  C346  1  0.17143735  0.51726228  0.40906120  1
  C  C347  1  0.18144681  0.53152867  0.41605149  1
  C  C348  1  0.18139696  0.54514114  0.40078022  1
  C  C349  1  0.17128473  0.54452718  0.37842122  1
  C  C350  1  0.19017111  0.51897338  0.45552135  1
  C  C351  1  0.20071357  0.52426162  0.47973755  1
  C  C352  1  0.21690194  0.52462156  0.47730246  1
  C  C353  1  0.22712331  0.53188623  0.49846733  1
  C  C354  1  0.22116721  0.53853936  0.52178298  1
  C  C355  1  0.20502402  0.53858560  0.52310343  1
  C  C356  1  0.19455026  0.53129096  0.50235627  1
  C  C357  1  0.17725366  0.53098038  0.50271459  1
  C  C358  1  0.22290634  0.51676041  0.45317648  1
  C  C359  1  0.23263212  0.54564328  0.54391040  1
  C  C360  1  0.24440109  0.53231847  0.49701149  1
  C  C361  1  0.26942060  0.54982247  0.49154752  1
  C  C362  1  0.27637012  0.53698820  0.49502904  1
  C  C363  1  0.29257892  0.53909634  0.49629238  1
  C  C364  1  0.30269810  0.55411457  0.49372567  1
  C  C365  1  0.29521869  0.56694517  0.48944683  1
  C  C366  1  0.27896739  0.56483066  0.48823649  1
  C  C367  1  0.31952575  0.55596408  0.49519638  1
  C  C368  1  0.32686125  0.54343964  0.49947503  1
  C  C369  1  0.19896090  0.54608958  0.54749099  1
  C  C370  1  0.18692415  0.53851877  0.59073062  1
  C  C371  1  0.18461431  0.55379610  0.59414218  1
  C  C372  1  0.17465648  0.55689328  0.61467937  1
  C  C373  1  0.16693433  0.54495213  0.63299674  1
  C  C374  1  0.16983314  0.52964321  0.62924591  1
  C  C375  1  0.17981793  0.52656295  0.60863199  1
  C  C376  1  0.15672375  0.54817864  0.65450839  1
  C  C377  1  0.14906580  0.53668366  0.67247256  1
  C  C378  1  0.53919052  0.14902766  0.33040065  1
  C  C379  1  0.55231095  0.15505476  0.34639804  1
  C  C380  1  0.55237597  0.16537441  0.36969523  1
  C  C381  1  0.56631064  0.17104876  0.38514470  1
  C  C382  1  0.56664318  0.18108322  0.40751748  1
  C  C383  1  0.55294976  0.18575801  0.41539206  1
  C  C384  1  0.53900330  0.18044097  0.40071987  1
  C  C385  1  0.53867241  0.17038949  0.37831405  1
  C  C386  1  0.56634392  0.19960157  0.45485775  1
  C  C387  1  0.56162175  0.20818602  0.47923448  1
  C  C388  1  0.56238654  0.22449093  0.47728606  1
  C  C389  1  0.55604549  0.23206902  0.49891321  1
  C  C390  1  0.54870603  0.22344692  0.52192474  1
  C  C391  1  0.54767504  0.20707898  0.52293250  1
  C  C392  1  0.55427618  0.19928251  0.50195493  1
  C  C393  1  0.55355269  0.18189648  0.50224480  1
  C  C394  1  0.57049836  0.23378140  0.45327374  1
  C  C395  1  0.54200642  0.23223994  0.54395367  1
  C  C396  1  0.55670139  0.24939550  0.49763422  1
  C  C397  1  0.53980873  0.26738164  0.49134681  1
  C  C398  1  0.55274234  0.27982773  0.49498177  1
  C  C399  1  0.55068943  0.29515928  0.49605438  1
  C  C400  1  0.53562974  0.29862963  0.49317378  1
  C  C401  1  0.52279685  0.28570113  0.48887024  1
  C  C402  1  0.52483436  0.27038377  0.48778135  1
  C  C403  1  0.53304654  0.31431856  0.49429080  1
  C  C404  1  0.54434241  0.32817354  0.49802817  1
  C  C405  1  0.53972646  0.19803475  0.54721291  1
  C  C406  1  0.54635046  0.18874938  0.59063694  1
  C  C407  1  0.53074762  0.18057757  0.59311819  1
  C  C408  1  0.52673370  0.16919226  0.61330628  1
  C  C409  1  0.53798557  0.16590324  0.63232995  1
  C  C410  1  0.55367162  0.17469600  0.62964536  1
  C  C411  1  0.55772776  0.18607169  0.60923991  1
  C  C412  1  0.53324341  0.15419931  0.65334088  1
  C  C413  1  0.54301942  0.14997088  0.67320855  1
  C  C414  1  0.86632934  0.44938721  0.67004968  1
  C  C415  1  0.85963204  0.43646518  0.65405115  1
  C  C416  1  0.84943740  0.43699812  0.63075503  1
  C  C417  1  0.84303820  0.42321718  0.61533797  1
  C  C418  1  0.83313903  0.42344678  0.59293420  1
  C  C419  1  0.82932710  0.43756924  0.58498673  1
  C  C420  1  0.83535386  0.45138029  0.59964798  1
  C  C421  1  0.84527379  0.45114791  0.62208083  1
  C  C422  1  0.81495109  0.42480737  0.54546796  1
  C  C423  1  0.80676430  0.43008437  0.52106723  1
  C  C424  1  0.79066523  0.43026128  0.52300530  1
  C  C425  1  0.78356161  0.43714913  0.50139712  1
  C  C426  1  0.79247708  0.44406622  0.47837432  1
  C  C427  1  0.80864946  0.44413556  0.47734355  1
  C  C428  1  0.81595014  0.43699915  0.49833943  1
  C  C429  1  0.83311234  0.43672562  0.49807136  1
  C  C430  1  0.78105844  0.42257563  0.54701504  1
  C  C431  1  0.78420643  0.45137948  0.45634979  1
  C  C432  1  0.76645514  0.43749413  0.50267334  1
  C  C433  1  0.74969433  0.45564068  0.50898130  1
  C  C434  1  0.73665481  0.44330672  0.50536726  1
  C  C435  1  0.72168513  0.44631625  0.50431052  1
  C  C436  1  0.71917469  0.46177305  0.50720351  1
  C  C437  1  0.73268452  0.47396949  0.51148161  1
  C  C438  1  0.74763703  0.47097825  0.51255517  1
  C  C439  1  0.70390072  0.46540211  0.50614704  1
  C  C440  1  0.68953279  0.45487808  0.50250498  1
  C  C441  1  0.81801483  0.45166184  0.45305763  1
  C  C442  1  0.82677664  0.44444754  0.40962154  1
  C  C443  1  0.83571433  0.45976930  0.40713000  1
  C  C444  1  0.84714232  0.46319092  0.38692921  1
  C  C445  1  0.84973010  0.45163514  0.36788732  1
  C  C446  1  0.84018454  0.43625848  0.37059465  1
  C  C447  1  0.82875922  0.43279224  0.39101143  1
  C  C448  1  0.86152096  0.45583086  0.34686814  1
  C  C449  1  0.86516044  0.44581309  0.32684688  1
  C  C450  1  0.44842309  0.86591620  0.67093660  1
  C  C451  1  0.46051381  0.86497989  0.65283909  1
  C  C452  1  0.45968418  0.85452864  0.62969473  1
  C  C453  1  0.47332075  0.85494322  0.61353765  1
  C  C454  1  0.47328279  0.84493766  0.59132135  1
  C  C455  1  0.45945504  0.83423418  0.58434462  1
  C  C456  1  0.44572527  0.83351411  0.59963416  1
  C  C457  1  0.44578622  0.84352763  0.62199711  1
  C  C458  1  0.47260461  0.82628739  0.54489583  1
  C  C459  1  0.46786270  0.81556230  0.52069451  1
  C  C460  1  0.46845181  0.79956035  0.52311902  1
  C  C461  1  0.46170219  0.78904403  0.50196347  1
  C  C462  1  0.45466683  0.79456414  0.47860785  1
  C  C463  1  0.45369916  0.81050246  0.47724759  1
  C  C464  1  0.46043913  0.82125257  0.49801904  1
  C  C465  1  0.45976803  0.83834853  0.49761814  1
  C  C466  1  0.47677719  0.79410286  0.54723458  1
  C  C467  1  0.44817771  0.78285455  0.45645296  1
  C  C468  1  0.46230734  0.77196089  0.50338754  1
  C  C469  1  0.44617942  0.74615200  0.50872456  1
  C  C470  1  0.45956438  0.74008018  0.50524877  1
  C  C471  1  0.45842907  0.72396062  0.50399306  1
  C  C472  1  0.44388872  0.71304255  0.50655700  1
  C  C473  1  0.43047514  0.71963881  0.51081529  1
  C  C474  1  0.43161154  0.73579854  0.51202316  1
  C  C475  1  0.44303841  0.69631608  0.50512613  1
  C  C476  1  0.45609933  0.68977773  0.50089554  1
  C  C477  1  0.44578166  0.81607288  0.45282211  1
  C  C478  1  0.45273500  0.82842623  0.40956599  1
  C  C479  1  0.43718376  0.82984035  0.40608544  1
  C  C480  1  0.43349642  0.83949531  0.38550153  1
  C  C481  1  0.44511586  0.84780412  0.36719511  1
  C  C482  1  0.46072922  0.84580118  0.37101180  1
  C  C483  1  0.46440012  0.83611873  0.39166854  1
  C  C484  1  0.44130651  0.85771934  0.34563468  1
  C  C485  1  0.45250962  0.86592373  0.32772150  1
  C  C486  1  0.39820592  0.51106489  0.51397970  1
  C  C487  1  0.39579604  0.52624288  0.50719632  1
  C  C488  1  0.40934672  0.53759595  0.49959639  1
  C  C489  1  0.42373153  0.53379021  0.49736367  1
  C  C490  1  0.42638971  0.51932140  0.50755986  1
  C  C491  1  0.41309141  0.50772718  0.51462818  1
  C  C492  1  0.38126401  0.53074245  0.50631351  1
  C  C493  1  0.36903979  0.53550128  0.50440343  1
  C  C494  1  0.35574141  0.54067662  0.50228156  1
  C  C495  1  0.34276773  0.54413948  0.50043206  1
  C  C496  1  0.53778557  0.41051996  0.49054469  1
  C  C497  1  0.52552767  0.39704574  0.49386953  1
  C  C498  1  0.50991355  0.39939350  0.49327804  1
  C  C499  1  0.50674124  0.41428498  0.49168296  1
  C  C500  1  0.51914924  0.42752044  0.48969549  1
  C  C501  1  0.53449813  0.42493640  0.48576091  1
  C  C502  1  0.52952493  0.38236864  0.49605892  1
  C  C503  1  0.53326389  0.36960060  0.49685085  1
  C  C504  1  0.53732778  0.35572255  0.49763427  1
  C  C505  1  0.54051556  0.34263227  0.49788557  1
  C  C506  1  0.60851809  0.46737189  0.51093504  1
  C  C507  1  0.62296127  0.47821173  0.50676356  1
  C  C508  1  0.62249894  0.49441997  0.50582294  1
  C  C509  1  0.60852802  0.49936321  0.50731561  1
  C  C510  1  0.59424881  0.48831706  0.51044381  1
  C  C511  1  0.59481723  0.47239681  0.51478071  1
  C  C512  1  0.63689922  0.47278646  0.50491420  1
  C  C513  1  0.64929646  0.46833582  0.50408340  1
  C  C514  1  0.66280631  0.46357326  0.50328713  1
  C  C515  1  0.67554663  0.45966196  0.50286102  1
  C  C516  1  0.46703589  0.60824980  0.49007404  1
  C  C517  1  0.47775750  0.62289056  0.49331818  1
  C  C518  1  0.49396274  0.62242183  0.49324633  1
  C  C519  1  0.49896848  0.60838839  0.49191325  1
  C  C520  1  0.48802281  0.59396254  0.48997975  1
  C  C521  1  0.47206811  0.59450646  0.48630816  1
  C  C522  1  0.47190950  0.63666083  0.49544488  1
  C  C523  1  0.46643329  0.64848782  0.49704523  1
  C  C524  1  0.46048968  0.66135928  0.49877968  1
  C  C525  1  0.45632875  0.67402592  0.50022520  1
  C  C526  1  0.05202987  0.50450998  0.89976766  1
  C  C527  1  0.06012809  0.50747180  0.87892223  1
  C  C528  1  0.06976013  0.51145022  0.85536534  1
  C  C529  1  0.06766666  0.52322002  0.83653534  1
  C  C530  1  0.07737240  0.52726034  0.81384140  1
  C  C531  1  0.08990210  0.51977990  0.80832311  1
  C  C532  1  0.09193566  0.50792809  0.82714538  1
  C  C533  1  0.08220144  0.50394128  0.84979761  1
  C  C534  1  0.10032717  0.52412208  0.78415119  1
  C  C535  1  0.11286541  0.51665193  0.77860081  1
  C  C536  1  0.12260106  0.52078858  0.75601134  1
  C  C537  1  0.12062299  0.53274384  0.73738500  1
  C  C538  1  0.10807529  0.54007629  0.74277142  1
  C  C539  1  0.09827882  0.53596593  0.76534341  1
  C  C540  1  0.13048769  0.53683547  0.71410104  1
  C  C541  1  0.13931684  0.53901622  0.69399172  1
  C  C542  1  0.50377338  0.05184242  0.89984514  1
  C  C543  1  0.50673818  0.05995710  0.87900516  1
  C  C544  1  0.51071480  0.06964022  0.85550314  1
  C  C545  1  0.51918445  0.06531790  0.83297481  1
  C  C546  1  0.52319899  0.07503133  0.81026042  1
  C  C547  1  0.51901186  0.08980153  0.80850691  1
  C  C548  1  0.51054903  0.09412542  0.83114395  1
  C  C549  1  0.50657087  0.08437512  0.85377615  1
  C  C550  1  0.52320643  0.10022066  0.78429042  1
  C  C551  1  0.51895891  0.11496372  0.78272220  1
  C  C552  1  0.52273582  0.12464741  0.75997211  1
  C  C553  1  0.53094411  0.12033580  0.73701820  1
  C  C554  1  0.53544047  0.10574465  0.73881011  1
  C  C555  1  0.53168343  0.09601732  0.76156242  1
  C  C556  1  0.53454282  0.13031489  0.71383771  1
  C  C557  1  0.53761849  0.13924281  0.69396131  1
  C  C558  1  0.96403368  0.48209267  0.10048545  1
  C  C559  1  0.95584573  0.47929414  0.12125279  1
  C  C560  1  0.94603583  0.47556086  0.14464939  1
  C  C561  1  0.95208296  0.47456037  0.17157443  1
  C  C562  1  0.94235193  0.47084945  0.19433487  1
  C  C563  1  0.92581734  0.46782648  0.19174584  1
  C  C564  1  0.91976617  0.46872159  0.16469018  1
  C  C565  1  0.92954090  0.47243494  0.14203676  1
  C  C566  1  0.91537578  0.46394890  0.21600649  1
  C  C567  1  0.89884554  0.46093305  0.21332901  1
  C  C568  1  0.88910296  0.45747622  0.23606839  1
  C  C569  1  0.89509389  0.45687665  0.26322445  1
  C  C570  1  0.91158434  0.45956323  0.26580553  1
  C  C571  1  0.92137250  0.46302146  0.24308967  1
  C  C572  1  0.88503791  0.45363392  0.28635290  1
  C  C573  1  0.87602979  0.45083480  0.30614695  1
  C  C574  1  0.48146661  0.96375839  0.10063046  1
  C  C575  1  0.47870624  0.95557718  0.12144128  1
  C  C576  1  0.47506082  0.94582283  0.14496591  1
  C  C577  1  0.46397516  0.94816834  0.16491360  1
  C  C578  1  0.46024461  0.93835043  0.18758327  1
  C  C579  1  0.46736861  0.92543719  0.19197363  1
  C  C580  1  0.47855351  0.92315953  0.17204728  1
  C  C581  1  0.48223369  0.93300607  0.14942801  1
  C  C582  1  0.46334123  0.91488044  0.21610502  1
  C  C583  1  0.47045958  0.90196085  0.22052183  1
  C  C584  1  0.46661224  0.89209996  0.24306600  1
  C  C585  1  0.45530477  0.89430820  0.26278503  1
  C  C586  1  0.44834069  0.90724585  0.25854302  1
  C  C587  1  0.45216399  0.91716866  0.23602011  1
  C  C588  1  0.45156408  0.88432215  0.28604746  1
  C  C589  1  0.44969047  0.87545838  0.30615458  1
  C  C590  1  0.50393217  0.05206559  0.10081147  1
  C  C591  1  0.50692447  0.06017883  0.12169251  1
  C  C592  1  0.51099812  0.06981116  0.14531718  1
  C  C593  1  0.49949767  0.07312349  0.16349834  1
  C  C594  1  0.50338794  0.08284045  0.18630551  1
  C  C595  1  0.51916111  0.08992958  0.19270101  1
  C  C596  1  0.53071410  0.08642792  0.17465997  1
  C  C597  1  0.52675764  0.07671216  0.15188750  1
  C  C598  1  0.52337731  0.10039232  0.21697198  1
  C  C599  1  0.53916495  0.10743746  0.22328820  1
  C  C600  1  0.54313490  0.11715880  0.24605487  1
  C  C601  1  0.53170908  0.12058118  0.26429363  1
  C  C602  1  0.51589978  0.11368009  0.25782639  1
  C  C603  1  0.51188008  0.10394866  0.23507933  1
  C  C604  1  0.53598737  0.13049143  0.28753667  1
  C  C605  1  0.53903517  0.13914532  0.30784073  1
  C  C606  1  0.05201225  0.50439755  0.10058948  1
  C  C607  1  0.06013336  0.50736835  0.12144209  1
  C  C608  1  0.06983397  0.51138713  0.14493006  1
  C  C609  1  0.06376453  0.51424576  0.17106421  1
  C  C610  1  0.07340320  0.51826756  0.19389048  1
  C  C611  1  0.08984027  0.51975520  0.19209214  1
  C  C612  1  0.09592358  0.51699586  0.16581442  1
  C  C613  1  0.08623845  0.51298278  0.14309221  1
  C  C614  1  0.10017783  0.52397851  0.21640438  1
  C  C615  1  0.11660863  0.52544662  0.21449223  1
  C  C616  1  0.12625806  0.52929522  0.23728424  1
  C  C617  1  0.12023203  0.53190831  0.26366107  1
  C  C618  1  0.10384444  0.53061602  0.26548557  1
  C  C619  1  0.09415441  0.52676981  0.24271785  1
  C  C620  1  0.13013303  0.53547059  0.28692595  1
  C  C621  1  0.13884132  0.53790270  0.30720152  1
  C  C622  1  0.96389082  0.48204686  0.89937332  1
  C  C623  1  0.95570262  0.47924090  0.87854339  1
  C  C624  1  0.94589182  0.47549375  0.85504657  1
  C  C625  1  0.92951492  0.47004821  0.85781137  1
  C  C626  1  0.91975300  0.46634440  0.83504217  1
  C  C627  1  0.92567169  0.46776548  0.80763657  1
  C  C628  1  0.94210326  0.47310557  0.80487751  1
  C  C629  1  0.95182434  0.47679995  0.82775203  1
  C  C630  1  0.91522886  0.46382048  0.78325733  1
  C  C631  1  0.92109068  0.46523745  0.75581875  1
  C  C632  1  0.91131143  0.46140683  0.73307298  1
  C  C633  1  0.89496078  0.45572879  0.73593698  1
  C  C634  1  0.88906974  0.45466217  0.76329741  1
  C  C635  1  0.89880488  0.45847815  0.78609472  1
  C  C636  1  0.88494990  0.45179215  0.71270902  1
  C  C637  1  0.87618171  0.44902982  0.69250086  1
  C  C638  1  0.48141306  0.96373179  0.89971313  1
  C  C639  1  0.47860168  0.95555694  0.87888645  1
  C  C640  1  0.47483604  0.94584050  0.85533503  1
  C  C641  1  0.45928508  0.93784291  0.84955421  1
  C  C642  1  0.45566932  0.92804789  0.82683889  1
  C  C643  1  0.46739577  0.92559851  0.80815005  1
  C  C644  1  0.48293940  0.93378051  0.81375371  1
  C  C645  1  0.48648369  0.94356792  0.83650177  1
  C  C646  1  0.46362849  0.91506709  0.78395336  1
  C  C647  1  0.47540897  0.91268417  0.76532863  1
  C  C648  1  0.47189987  0.90284063  0.74270748  1
  C  C649  1  0.45638652  0.89460417  0.73696344  1
  C  C650  1  0.44463644  0.89699968  0.75555598  1
  C  C651  1  0.44810876  0.90684861  0.77823415  1
  C  C652  1  0.45294096  0.88450308  0.71390624  1
  C  C653  1  0.45084223  0.87580165  0.69359369  1
  N  N654  1  0.53247767  0.49255019  0.49302970  1
  N  N655  1  0.49133553  0.53106750  0.50085123  1
  O  O656  1  0.19168753  0.53266363  0.43744937  1
  O  O657  1  0.19618803  0.53491097  0.57024284  1
  O  O658  1  0.25354127  0.54815485  0.49132651  1
  O  O659  1  0.55260501  0.19577314  0.43680015  1
  O  O660  1  0.55074902  0.19950006  0.57021620  1
  O  O661  1  0.54117830  0.25213306  0.49115580  1
  O  O662  1  0.81949535  0.43848533  0.56353164  1
  O  O663  1  0.81594185  0.44060570  0.43004378  1
  O  O664  1  0.76462743  0.45335160  0.50916844  1
  O  O665  1  0.45887990  0.82405011  0.56296575  1
  O  O666  1  0.45690548  0.81948117  0.43008390  1
  O  O667  1  0.44687652  0.76191566  0.50896593  1
