# generated using pymatgen
data_H61C107(NO)4
_symmetry_space_group_name_H-M   'P 1'
_cell_length_a   51.93969519
_cell_length_b   37.14086653
_cell_length_c   59.61834302
_cell_angle_alpha   91.11730420
_cell_angle_beta   90.72616224
_cell_angle_gamma   116.31873765
_symmetry_Int_Tables_number   1
_chemical_formula_structural   H61C107(NO)4
_chemical_formula_sum   'H122 C214 N8 O8'
_cell_volume   103038.45178225
_cell_formula_units_Z   2
loop_
 _symmetry_equiv_pos_site_id
 _symmetry_equiv_pos_as_xyz
  1  'x, y, z'
loop_
 _atom_site_type_symbol
 _atom_site_label
 _atom_site_symmetry_multiplicity
 _atom_site_fract_x
 _atom_site_fract_y
 _atom_site_fract_z
 _atom_site_occupancy
  H  H0  1  0.03692736  0.06870270  0.57011873  1
  H  H1  1  0.03915579  0.95480140  0.56994670  1
  H  H2  1  0.03818893  0.91507637  0.61401434  1
  H  H3  1  0.03689002  0.97449873  0.67599812  1
  H  H4  1  0.03698724  0.05342860  0.67616037  1
  H  H5  1  0.03740321  0.11051078  0.61434061  1
  H  H6  1  0.03262747  0.04246659  0.35109560  1
  H  H7  1  0.03410545  0.10340817  0.41316958  1
  H  H8  1  0.03506493  0.06484011  0.45722515  1
  H  H9  1  0.03728168  0.95094773  0.45702261  1
  H  H10  1  0.03562628  0.90845697  0.41291566  1
  H  H11  1  0.03323174  0.96356464  0.35100445  1
  H  H12  1  0.07365327  0.54248931  0.76818257  1
  H  H13  1  0.06220700  0.57333960  0.78657750  1
  H  H14  1  0.02893231  0.45997197  0.78841495  1
  H  H15  1  0.00241275  0.44922700  0.76648876  1
  H  H16  1  -0.00608551  0.50023473  0.74886090  1
  H  H17  1  0.02996846  0.53190755  0.74029208  1
  H  H18  1  0.01159468  0.54405756  0.80099912  1
  H  H19  1  0.01457374  0.50054361  0.81136983  1
  H  H20  1  0.07024947  0.51481525  0.26095223  1
  H  H21  1  0.05620602  0.47057176  0.24133938  1
  H  H22  1  0.03044035  0.54997640  0.23818494  1
  H  H23  1  0.00148825  0.52949833  0.25741181  1
  H  H24  1  0.99076548  0.46895104  0.27695542  1
  H  H25  1  0.02637801  0.47997231  0.28703645  1
  H  H26  1  0.00544474  0.44238132  0.22552862  1
  H  H27  1  0.01228164  0.49138334  0.21517698  1
  H  H28  1  0.67864741  0.36045612  0.97032706  1
  H  H29  1  0.59937534  0.38965480  0.97195342  1
  H  H30  1  0.55660443  0.40195264  0.97522431  1
  H  H31  1  0.55602951  0.38279425  0.04665080  1
  H  H32  1  0.59703148  0.36712894  0.04261048  1
  H  H33  1  0.67542721  0.36235318  0.04227595  1
  H  H34  1  0.72500989  0.36013731  0.10975697  1
  H  H35  1  0.75215238  0.35424500  0.14270615  1
  H  H36  1  0.80433454  0.32172598  0.09868866  1
  H  H37  1  0.77475877  0.32279324  0.06637038  1
  H  H38  1  0.74366071  0.34779390  0.00986689  1
  H  H39  1  0.77930719  0.32247670  0.94792804  1
  H  H40  1  0.80913512  0.32910804  0.91516238  1
  H  H41  1  0.75346376  0.36251412  0.87541561  1
  H  H42  1  0.72533317  0.35926201  0.90901157  1
  H  H43  1  0.37348065  0.64449665  0.05646489  1
  H  H44  1  0.46225903  0.63829511  0.05506277  1
  H  H45  1  0.50553862  0.62738446  0.05165173  1
  H  H46  1  0.48950010  0.60804980  0.97984136  1
  H  H47  1  0.44650684  0.61873764  0.98380115  1
  H  H48  1  0.37865366  0.64879768  0.98463297  1
  H  H49  1  0.33861113  0.67511097  0.91876825  1
  H  H50  1  0.30937245  0.67216707  0.88485790  1
  H  H51  1  0.24275875  0.67268953  0.92723220  1
  H  H52  1  0.26944952  0.66709178  0.96083505  1
  H  H53  1  0.31032517  0.66247829  0.01745366  1
  H  H54  1  0.26390070  0.66135424  0.07725964  1
  H  H55  1  0.23954936  0.66790810  0.11175290  1
  H  H56  1  0.30812998  0.66621910  0.15262534  1
  H  H57  1  0.33375372  0.66383962  0.11819204  1
  H  H58  1  0.87396970  0.36915987  0.86660061  1
  H  H59  1  0.83405702  0.43573147  0.83511698  1
  H  H60  1  0.79126272  0.40102375  0.85773840  1
  H  H61  1  0.82932362  0.32954342  0.88609815  1
  H  H62  1  0.86675830  0.34257660  0.14989564  1
  H  H63  1  0.83545897  0.41675083  0.18555907  1
  H  H64  1  0.79230857  0.39034559  0.16100666  1
  H  H65  1  0.82159779  0.31153896  0.12785358  1
  H  H66  1  0.19666408  0.66897884  0.86210034  1
  H  H67  1  0.21090919  0.56289554  0.85933587  1
  H  H68  1  0.25600628  0.59904270  0.88179118  1
  H  H69  1  0.24010498  0.70361565  0.88644506  1
  H  H70  1  0.20551009  0.67921625  0.18192530  1
  H  H71  1  0.19762054  0.56031308  0.16736896  1
  H  H72  1  0.24299331  0.59028606  0.14635040  1
  H  H73  1  0.24998718  0.70882737  0.16005962  1
  H  H74  1  0.51762129  0.45015574  0.98571699  1
  H  H75  1  0.51705090  0.51193186  0.97389605  1
  H  H76  1  0.53742508  0.49798531  0.05375168  1
  H  H77  1  0.53743328  0.61618667  0.02765344  1
  H  H78  1  0.51740807  0.39627769  -0.00095421  1
  H  H79  1  0.53660224  0.55970880  0.04190739  1
  H  H80  1  0.54841544  0.59655594  0.99038912  1
  H  H81  1  0.51105430  0.57237962  0.98434989  1
  H  H82  1  0.50584051  0.41340773  0.03726919  1
  H  H83  1  0.54331916  0.43683808  0.04310507  1
  H  H84  1  0.08334182  0.22216971  0.67949206  1
  H  H85  1  0.08607451  0.28401167  0.69635654  1
  H  H86  1  0.99341665  0.22563203  0.70331196  1
  H  H87  1  0.99183721  0.16451791  0.68634310  1
  H  H88  1  0.99511925  0.27512995  0.71685564  1
  H  H89  1  0.99772691  0.33702413  0.73332964  1
  H  H90  1  0.08925464  0.39495214  0.72651890  1
  H  H91  1  0.08780755  0.33349811  0.70994432  1
  H  H92  1  0.07717671  0.84970950  0.67596283  1
  H  H93  1  0.07302404  0.78822773  0.69275443  1
  H  H94  1  0.98293664  0.75410040  0.70491082  1
  H  H95  1  0.98823255  0.81608809  0.68793954  1
  H  H96  1  0.97951615  0.70496779  0.71914065  1
  H  H97  1  0.97551952  0.64289252  0.73513098  1
  H  H98  1  0.06464308  0.67765315  0.72296660  1
  H  H99  1  0.06970486  0.73990177  0.70669735  1
  H  H100  1  0.99024942  0.79776898  0.34221325  1
  H  H101  1  0.98996616  0.73740169  0.32527245  1
  H  H102  1  0.08312807  0.79310474  0.33113271  1
  H  H103  1  0.08227109  0.85276380  0.34795206  1
  H  H104  1  0.08358785  0.74553727  0.31734747  1
  H  H105  1  0.08341054  0.68472020  0.30108014  1
  H  H106  1  0.99132938  0.62929933  0.29532632  1
  H  H107  1  0.99033822  0.68923848  0.31149321  1
  H  H108  1  0.06403112  0.18956957  0.32560765  1
  H  H109  1  0.06120281  0.24665603  0.30837856  1
  H  H110  1  0.98731976  0.22632658  0.34877996  1
  H  H111  1  0.99097886  0.16952551  0.36546146  1
  H  H112  1  0.98406590  0.27133896  0.33477208  1
  H  H113  1  0.98157790  0.32899880  0.31823244  1
  H  H114  1  0.05468849  0.34996333  0.27816919  1
  H  H115  1  0.05801185  0.29233498  0.29420900  1
  H  H116  1  1.00025255  0.02137123  0.49282829  1
  H  H117  1  0.00083317  0.02266525  0.53388059  1
  H  H118  1  0.08901105  0.98093183  0.53422455  1
  H  H119  1  0.10425878  0.03546955  0.53477443  1
  H  H120  1  0.08867075  0.98003920  0.49358818  1
  H  H121  1  0.10385421  0.03457088  0.49395387  1
  C  C122  1  0.03733391  0.03149170  0.59910009  1
  C  C123  1  0.03718958  0.05125064  0.61994098  1
  C  C124  1  0.03734759  0.03247656  0.64091713  1
  C  C125  1  0.03768269  0.99425184  0.64083834  1
  C  C126  1  0.03827263  0.97459891  0.61980019  1
  C  C127  1  0.03839030  0.99337487  0.59903277  1
  C  C128  1  0.03643514  0.04122242  0.57660445  1
  C  C129  1  0.03942389  0.98252219  0.57651421  1
  C  C130  1  0.03813204  0.93829944  0.62534485  1
  C  C131  1  0.03736367  0.96930943  0.65801657  1
  C  C132  1  0.03702143  0.05795604  0.65818270  1
  C  C133  1  0.03702866  0.08766452  0.62560661  1
  C  C134  1  0.03378223  0.02381090  0.38623688  1
  C  C135  1  0.03423827  0.98558664  0.38620013  1
  C  C136  1  0.03527161  0.96736845  0.40720336  1
  C  C137  1  0.03579505  0.98753469  0.42804871  1
  C  C138  1  0.03469935  0.02562271  0.42808937  1
  C  C139  1  0.03401146  0.04393739  0.40728383  1
  C  C140  1  0.03295590  0.04817622  0.36908867  1
  C  C141  1  0.03353489  0.07988204  0.40175809  1
  C  C142  1  0.03447288  0.03695018  0.45062559  1
  C  C143  1  0.03747158  0.97827577  0.45055931  1
  C  C144  1  0.03544915  0.93092775  0.40159335  1
  C  C145  1  0.03403265  0.95963646  0.36899163  1
  C  C146  1  0.01494281  0.52405884  0.75422389  1
  C  C147  1  0.02653029  0.51332319  0.77566272  1
  C  C148  1  0.01014474  0.51438056  0.79671176  1
  C  C149  1  0.05662094  0.54440813  0.77804836  1
  C  C150  1  0.02385622  0.47072717  0.77276685  1
  C  C151  1  0.01112827  0.46872230  0.27269315  1
  C  C152  1  0.02344391  0.49184980  0.25121158  1
  C  C153  1  0.00641710  0.47179967  0.22963768  1
  C  C154  1  0.05245565  0.49382269  0.25019069  1
  C  C155  1  0.02298582  0.53265683  0.25342253  1
  C  C156  1  0.68748613  0.35855913  0.98667837  1
  C  C157  1  0.67373168  0.36168113  0.00610913  1
  C  C158  1  0.64825930  0.36683213  0.00502102  1
  C  C159  1  0.62646392  0.37181984  0.00534678  1
  C  C160  1  0.60188918  0.37853270  0.00713721  1
  C  C161  1  0.58957363  0.38793167  0.98820879  1
  C  C162  1  0.56566090  0.39479309  0.99009393  1
  C  C163  1  0.55390866  0.39542665  0.01132971  1
  C  C164  1  0.56573420  0.38534978  0.03028746  1
  C  C165  1  0.58864740  0.37629848  0.02807148  1
  C  C166  1  0.68581468  0.35990195  0.02695428  1
  C  C167  1  0.71092265  0.35498961  0.02853607  1
  C  C168  1  0.72288849  0.35247872  0.04958635  1
  C  C169  1  0.73443834  0.34905695  0.06690148  1
  C  C170  1  0.74935188  0.34465305  0.08568970  1
  C  C171  1  0.74270551  0.35220056  0.10764644  1
  C  C172  1  0.75886170  0.35091987  0.12588489  1
  C  C173  1  0.78323673  0.34393182  0.12274448  1
  C  C174  1  0.78718691  0.33050425  0.10127506  1
  C  C175  1  0.77080649  0.33123565  0.08313273  1
  C  C176  1  0.72407953  0.35168681  0.00879386  1
  C  C177  1  0.71248309  0.35310375  0.98776573  1
  C  C178  1  0.72594591  0.34925779  0.96796714  1
  C  C179  1  0.73771341  0.34616714  0.95086566  1
  C  C180  1  0.75211871  0.34453873  0.93133696  1
  C  C181  1  0.77463208  0.33296985  0.93213978  1
  C  C182  1  0.79128088  0.33678350  0.91370015  1
  C  C183  1  0.78652566  0.35317067  0.89373460  1
  C  C184  1  0.76079564  0.35731825  0.89167071  1
  C  C185  1  0.74426154  0.35377362  0.91018448  1
  C  C186  1  0.36504304  0.64767119  0.04019845  1
  C  C187  1  0.37908946  0.64565778  0.02071214  1
  C  C188  1  0.40412535  0.63944511  0.02178155  1
  C  C189  1  0.42582720  0.63423203  0.02151717  1
  C  C190  1  0.45064499  0.62809698  0.01978352  1
  C  C191  1  0.46821771  0.63104232  0.03872005  1
  C  C192  1  0.49235196  0.62471102  0.03676265  1
  C  C193  1  0.49962679  0.61333165  0.01580258  1
  C  C194  1  0.48306907  0.61252503  -0.00341661  1
  C  C195  1  0.45924548  0.61951261  -0.00133702  1
  C  C196  1  0.36801700  0.65031551  0.00000037  1
  C  C197  1  0.34354398  0.65684367  0.99863536  1
  C  C198  1  0.33228161  0.66196892  0.97784426  1
  C  C199  1  0.32076588  0.66619487  0.96072570  1
  C  C200  1  0.30552283  0.66963882  0.94190451  1
  C  C201  1  0.31701616  0.67269120  0.92026452  1
  C  C202  1  0.30054371  0.67039928  0.90149456  1
  C  C203  1  0.27286724  0.66787595  0.90405055  1
  C  C204  1  0.26349039  0.67227024  0.92555066  1
  C  C205  1  0.27857587  0.67027550  0.94421265  1
  C  C206  1  0.32969733  0.65803974  0.01838544  1
  C  C207  1  0.34031810  0.65376322  0.03926155  1
  C  C208  1  0.32636481  0.65619061  0.05906160  1
  C  C209  1  0.31431523  0.65889155  0.07607064  1
  C  C210  1  0.30042589  0.66211488  0.09553235  1
  C  C211  1  0.27384187  0.66404176  0.09380771  1
  C  C212  1  0.26006958  0.66663533  0.11285244  1
  C  C213  1  0.27116107  0.66412684  0.13410321  1
  C  C214  1  0.29830833  0.66463619  0.13615805  1
  C  C215  1  0.31291845  0.66421220  0.11706395  1
  C  C216  1  0.85574365  0.37613510  0.86477736  1
  C  C217  1  0.85815788  0.40679317  0.84981684  1
  C  C218  1  0.83347634  0.41372746  0.84720339  1
  C  C219  1  0.80950415  0.39432991  0.86005098  1
  C  C220  1  0.95341611  0.47654283  0.80636502  1
  C  C221  1  0.83138261  0.35578782  0.87700552  1
  C  C222  1  0.88336866  0.42758131  0.83790430  1
  C  C223  1  0.90575264  0.44510029  0.82743517  1
  C  C224  1  0.92971889  0.46394422  0.81614000  1
  C  C225  1  0.80879567  0.36721442  0.87664847  1
  C  C226  1  0.85029853  0.35292236  0.15227626  1
  C  C227  1  0.85518650  0.38300156  0.16914930  1
  C  C228  1  0.83280857  0.39473635  0.17224577  1
  C  C229  1  0.80863163  0.37990152  0.15844550  1
  C  C230  1  0.94976402  0.44417968  0.21792976  1
  C  C231  1  0.82574419  0.33732927  0.13888104  1
  C  C232  1  0.88049562  0.39919582  0.18231200  1
  C  C233  1  0.90277275  0.41368547  0.19403000  1
  C  C234  1  0.92660466  0.42918888  0.20659168  1
  C  C235  1  0.80545558  0.35293370  0.14035382  1
  C  C236  1  0.20954175  0.65370031  0.86689238  1
  C  C237  1  0.20041033  0.61325423  0.85907466  1
  C  C238  1  0.21805390  0.59417485  0.86467181  1
  C  C239  1  0.24306938  0.61425251  0.87708559  1
  C  C240  1  0.10388908  0.53517360  0.81639291  1
  C  C241  1  0.23352094  0.67274417  0.88061948  1
  C  C242  1  0.17530350  0.59357547  0.84625241  1
  C  C243  1  0.15278097  0.57666108  0.83470814  1
  C  C244  1  0.12989777  0.56064980  0.82189069  1
  C  C245  1  0.25056999  0.65320633  0.88590674  1
  C  C246  1  0.21392787  0.65999048  0.17408767  1
  C  C247  1  0.19834191  0.61765139  0.17629873  1
  C  C248  1  0.20970598  0.59282073  0.16620182  1
  C  C249  1  0.23476607  0.60936634  0.15458366  1
  C  C250  1  0.09969489  0.55552201  0.21436691  1
  C  C251  1  0.23858408  0.67639041  0.16176403  1
  C  C252  1  0.17295029  0.60059472  0.18805191  1
  C  C253  1  0.15026148  0.58524116  0.19862204  1
  C  C254  1  0.12677153  0.56924340  0.20987983  1
  C  C255  1  0.24937837  0.65125428  0.15204598  1
  C  C256  1  0.52799205  0.46883203  0.02083457  1
  C  C257  1  0.52703957  0.43005960  0.02952487  1
  C  C258  1  0.52202760  0.47391971  0.99836377  1
  C  C259  1  0.53296037  0.50060788  0.03608280  1
  C  C260  1  0.52635220  0.54097509  0.00682434  1
  C  C261  1  0.52719651  0.57963892  0.99807107  1
  C  C262  1  0.53231661  0.53593039  0.02929796  1
  C  C263  1  0.52145495  0.50927323  0.99157349  1
  C  C264  1  0.03639234  0.12376330  0.66130037  1
  C  C265  1  0.03653060  0.15354588  0.67087625  1
  C  C266  1  0.03740438  0.18874169  0.68138955  1
  C  C267  1  0.06370678  0.22339725  0.68477387  1
  C  C268  1  0.06503647  0.25836901  0.69441318  1
  C  C269  1  0.03994630  0.26093041  0.70144319  1
  C  C270  1  0.01358028  0.22594196  0.69827008  1
  C  C271  1  0.01244189  0.19104099  0.68859215  1
  C  C272  1  0.04125635  0.29831294  0.71160392  1
  C  C273  1  0.01614564  0.30083739  0.71863315  1
  C  C274  1  0.01740601  0.33591049  0.72801750  1
  C  C275  1  0.04371808  0.37079325  0.73110458  1
  C  C276  1  0.06870018  0.36836997  0.72421271  1
  C  C277  1  0.06761313  0.33329646  0.71479844  1
  C  C278  1  0.04484271  0.40686241  0.74087096  1
  C  C279  1  0.04120753  0.43400314  0.75069336  1
  C  C280  1  0.03680037  0.90278877  0.66069599  1
  C  C281  1  0.03539357  0.87280446  0.67014282  1
  C  C282  1  0.03301690  0.83745314  0.68055257  1
  C  C283  1  0.05657564  0.82843204  0.68241400  1
  C  C284  1  0.05401007  0.79346392  0.69206579  1
  C  C285  1  0.02756888  0.76529952  0.70060596  1
  C  C286  1  0.00393678  0.77451802  0.69881118  1
  C  C287  1  0.00669793  0.80954073  0.68914205  1
  C  C288  1  0.02484021  0.72797349  0.71080787  1
  C  C289  1  0.99849333  0.69962010  0.71943876  1
  C  C290  1  0.99598153  0.66427154  0.72850285  1
  C  C291  1  0.01945205  0.65482055  0.72933963  1
  C  C292  1  0.04601135  0.68383974  0.72166557  1
  C  C293  1  0.04865445  0.71914226  0.71253274  1
  C  C294  1  0.01683660  0.61811548  0.73787752  1
  C  C295  1  0.01542374  0.58571521  0.74457231  1
  C  C296  1  0.03532631  0.89378985  0.36636888  1
  C  C297  1  0.03582246  0.86429516  0.35693925  1
  C  C298  1  0.03620429  0.82977093  0.34657065  1
  C  C299  1  0.01053753  0.79631798  0.33969171  1
  C  C300  1  0.01060950  0.76218448  0.33003911  1
  C  C301  1  0.03658968  0.75938425  0.32654744  1
  C  C302  1  0.06236110  0.79313767  0.33328370  1
  C  C303  1  0.06208999  0.82716723  0.34292130  1
  C  C304  1  0.03687785  0.72300401  0.31640966  1
  C  C305  1  0.06295115  0.72046049  0.31292461  1
  C  C306  1  0.06312560  0.68611778  0.30372612  1
  C  C307  1  0.03749901  0.65227751  0.29747135  1
  C  C308  1  0.01147483  0.65490866  0.30046791  1
  C  C309  1  0.01113173  0.68915565  0.30966023  1
  C  C310  1  0.03868109  0.61748889  0.28811660  1
  C  C311  1  0.03630931  0.58603297  0.27870020  1
  C  C312  1  0.03144198  0.11386741  0.36664198  1
  C  C313  1  0.02992391  0.14220976  0.35728220  1
  C  C314  1  0.02787466  0.17512491  0.34698678  1
  C  C315  1  0.04721509  0.19791920  0.33058199  1
  C  C316  1  0.04538583  0.23031030  0.32082401  1
  C  C317  1  0.02386310  0.24208164  0.32679815  1
  C  C318  1  0.00438363  0.21905114  0.34322095  1
  C  C319  1  0.00635322  0.18671939  0.35287642  1
  C  C320  1  0.02182929  0.27670809  0.31655143  1
  C  C321  1  1.00016974  0.28816507  0.32262715  1
  C  C322  1  0.99863362  0.32101957  0.31339121  1
  C  C323  1  0.01873422  0.34516593  0.29771425  1
  C  C324  1  0.03956903  0.33283773  0.29092484  1
  C  C325  1  0.04121432  0.29989852  0.30010149  1
  C  C326  1  0.01699486  0.37931192  0.28900722  1
  C  C327  1  0.01463206  0.40933053  0.28222888  1
  C  C328  1  0.05770953  0.00404430  0.50178612  1
  C  C329  1  0.03724602  0.00961360  0.48895452  1
  C  C330  1  0.01713095  0.01698375  0.50157277  1
  C  C331  1  0.01746082  0.01773146  0.52535899  1
  C  C332  1  0.03789577  0.01107359  0.53823856  1
  C  C333  1  0.05798680  1.00467453  0.52569792  1
  C  C334  1  0.08799091  0.00727385  0.52724468  1
  C  C335  1  0.08773083  0.00666843  0.50084380  1
  N  N336  1  0.03799069  0.01155282  0.56274305  1
  N  N337  1  0.03746926  0.93357266  0.64912370  1
  N  N338  1  0.03683007  0.09318449  0.64943157  1
  N  N339  1  0.03264810  0.08389414  0.37795258  1
  N  N340  1  0.03651553  0.00832863  0.46442741  1
  N  N341  1  0.03486240  0.92478374  0.37779102  1
  N  N342  1  0.52309040  0.60555267  0.01452836  1
  N  N343  1  0.53063260  0.40394311  0.01285576  1
  O  O344  1  0.00946101  0.55902914  0.75883863  1
  O  O345  1  0.97383564  0.48735264  0.79382524  1
  O  O346  1  0.08047062  0.51013093  0.81228427  1
  O  O347  1  0.04436473  0.46850171  0.75639970  1
  O  O348  1  0.00342963  0.42563300  0.26974252  1
  O  O349  1  0.97049103  0.45912248  0.23090953  1
  O  O350  1  0.07563494  0.54975528  0.21361893  1
  O  O351  1  0.04251358  0.55877114  0.27143573  1
