# generated using pymatgen
data_H16C27
_symmetry_space_group_name_H-M   'P 1'
_cell_length_a   26.24143062
_cell_length_b   26.06621075
_cell_length_c   82.26058043
_cell_angle_alpha   89.76516294
_cell_angle_beta   90.95061318
_cell_angle_gamma   89.69864354
_symmetry_Int_Tables_number   1
_chemical_formula_structural   H16C27
_chemical_formula_sum   'H160 C270'
_cell_volume   56258.42756595
_cell_formula_units_Z   10
loop_
 _symmetry_equiv_pos_site_id
 _symmetry_equiv_pos_as_xyz
  1  'x, y, z'
loop_
 _atom_site_type_symbol
 _atom_site_label
 _atom_site_symmetry_multiplicity
 _atom_site_fract_x
 _atom_site_fract_y
 _atom_site_fract_z
 _atom_site_occupancy
  H  H0  1  0.25578469  0.19889000  0.98855725  1
  H  H1  1  0.26083038  0.11672458  0.97402064  1
  H  H2  1  0.09699678  0.11511210  0.96846107  1
  H  H3  1  0.09115192  0.19413528  0.98460628  1
  H  H4  1  0.25464301  0.30460873  0.99027146  1
  H  H5  1  0.26205057  0.38727532  0.97573618  1
  H  H6  1  0.09064710  0.31388018  0.98457688  1
  H  H7  1  0.08941897  0.31383005  0.02317058  1
  H  H8  1  0.09595273  0.39479098  0.03834314  1
  H  H9  1  0.25994645  0.38505715  0.03680228  1
  H  H10  1  0.25396075  0.30416887  0.02135676  1
  H  H11  1  0.08998292  0.19524818  0.02444060  1
  H  H12  1  0.09551028  0.11575624  0.04059407  1
  H  H13  1  0.25949115  0.11725147  0.03691266  1
  H  H14  1  0.25471817  0.19964377  0.02220194  1
  H  H15  1  0.09883681  0.39454472  0.96923581  1
  H  H16  1  0.47404468  0.08577084  0.48926968  1
  H  H17  1  0.55089690  0.09258860  0.47280835  1
  H  H18  1  0.56277309  0.92733513  0.47105103  1
  H  H19  1  0.48467230  0.92016001  0.48694067  1
  H  H20  1  0.37571952  0.08554573  0.48885156  1
  H  H21  1  0.29581617  0.09240400  0.47306155  1
  H  H22  1  0.36571724  0.91990503  0.48693899  1
  H  H23  1  0.36447918  0.91742742  0.52695694  1
  H  H24  1  0.28589830  0.92754859  0.54248037  1
  H  H25  1  0.28750928  0.08953747  0.53266479  1
  H  H26  1  0.37338175  0.08208033  0.52108343  1
  H  H27  1  0.48700304  0.91791387  0.52723802  1
  H  H28  1  0.56686063  0.92679853  0.54296128  1
  H  H29  1  0.55328332  0.09176180  0.53981399  1
  H  H30  1  0.47416451  0.08324490  0.52373509  1
  H  H31  1  0.28607822  0.92711840  0.47091778  1
  H  H32  1  0.47671704  0.28069193  0.78077036  1
  H  H33  1  0.45222925  0.33537324  0.76829382  1
  H  H34  1  0.34903452  0.26413394  0.74916826  1
  H  H35  1  0.39435948  0.31289715  0.74222763  1
  H  H36  1  0.39542811  0.20517247  0.77675648  1
  H  H37  1  0.41702804  0.17423714  0.75757965  1
  H  H38  1  0.48861710  0.29313659  0.74318590  1
  H  H39  1  0.51239321  0.23908450  0.75582375  1
  H  H40  1  0.37090094  0.28082315  0.23305860  1
  H  H41  1  0.39599712  0.33540221  0.24520563  1
  H  H42  1  0.50256926  0.26472974  0.26276060  1
  H  H43  1  0.45728968  0.31226919  0.27068493  1
  H  H44  1  0.45468393  0.20532066  0.23629611  1
  H  H45  1  0.43400253  0.17413012  0.25554981  1
  H  H46  1  0.36350784  0.29255223  0.27078519  1
  H  H47  1  0.33880265  0.23869118  0.25849716  1
  H  H48  1  0.34751108  0.73709815  0.83139940  1
  H  H49  1  0.45024572  0.76897968  0.84704881  1
  H  H50  1  0.43791263  0.69676687  0.81524402  1
  H  H51  1  0.42611111  0.81263452  0.81443057  1
  H  H52  1  0.97017114  0.25761693  0.31452879  1
  H  H53  1  0.85586014  0.24411939  0.31444002  1
  H  H54  1  0.93562299  0.16992734  0.33365898  1
  H  H55  1  0.89873366  0.27512125  0.34619808  1
  H  H56  1  0.33988536  0.77787383  0.18007815  1
  H  H57  1  0.43666182  0.72811051  0.16595470  1
  H  H58  1  0.43162877  0.80387692  0.19823372  1
  H  H59  1  0.41109480  0.68995390  0.19841029  1
  H  H60  1  0.95126631  0.27232170  0.66549137  1
  H  H61  1  0.90992695  0.17343289  0.68142955  1
  H  H62  1  0.99227697  0.24885582  0.69826980  1
  H  H63  1  0.87870857  0.26547919  0.69793095  1
  H  H64  1  0.50152220  0.50385763  0.79775119  1
  H  H65  1  0.50369228  0.41407022  0.78625556  1
  H  H66  1  0.34379708  0.41534336  0.77963735  1
  H  H67  1  0.33810574  0.50523755  0.79118965  1
  H  H68  1  0.14067836  0.24395361  0.27017129  1
  H  H69  1  0.23122404  0.24598172  0.25984001  1
  H  H70  1  0.29044599  0.23881987  0.30793047  1
  H  H71  1  0.20113681  0.23693430  0.31930503  1
  H  H72  1  0.33960513  0.49642418  0.21211088  1
  H  H73  1  0.34256955  0.40706416  0.22410773  1
  H  H74  1  0.49889237  0.42266713  0.23580169  1
  H  H75  1  0.49947672  0.51243435  0.22385535  1
  H  H76  1  0.71141835  0.24665966  0.74333456  1
  H  H77  1  0.62100163  0.24880150  0.75381676  1
  H  H78  1  0.56106666  0.23733624  0.70594021  1
  H  H79  1  0.65020913  0.23523393  0.69440790  1
  H  H80  1  0.51299926  0.99136505  0.79328826  1
  H  H81  1  0.51489515  0.08231083  0.78189799  1
  H  H82  1  0.35592702  0.09723565  0.78675098  1
  H  H83  1  0.35004140  0.00680046  0.79823238  1
  H  H84  1  0.21490675  0.24758466  0.69404690  1
  H  H85  1  0.30435987  0.25051703  0.70615661  1
  H  H86  1  0.24642262  0.26448087  0.75352550  1
  H  H87  1  0.15564498  0.26206539  0.74250993  1
  H  H88  1  0.38662416  0.02954356  0.19416573  1
  H  H89  1  0.38947688  0.11952695  0.20600161  1
  H  H90  1  0.42559725  0.06053106  0.25265576  1
  H  H91  1  0.42364146  0.96899565  0.24194766  1
  H  H92  1  0.69317617  0.22563022  0.27154673  1
  H  H93  1  0.60200945  0.22925588  0.26079413  1
  H  H94  1  0.55052668  0.28462308  0.30580039  1
  H  H95  1  0.64039466  0.28189418  0.31767942  1
  H  H96  1  0.16898365  0.54993200  0.94119690  1
  H  H97  1  0.28822781  0.44200287  0.92950941  1
  H  H98  1  0.25314898  0.38067682  0.94933439  1
  H  H99  1  0.13536229  0.48927383  0.96156333  1
  H  H100  1  0.41097749  0.58198128  0.87110635  1
  H  H101  1  0.43859072  0.63461829  0.84777826  1
  H  H102  1  0.31368540  0.73895893  0.85600560  1
  H  H103  1  0.29016086  0.68991822  0.88040222  1
  H  H104  1  0.18935760  0.98873037  0.42356968  1
  H  H105  1  0.16136778  0.12200738  0.45312307  1
  H  H106  1  0.21454261  0.08365556  0.47523530  1
  H  H107  1  0.24366248  0.95158485  0.44555299  1
  H  H108  1  0.01779558  0.24124263  0.38875464  1
  H  H109  1  0.96661354  0.27210797  0.36523535  1
  H  H110  1  1.02060903  0.14554872  0.33689614  1
  H  H111  1  0.06062207  0.10685610  0.36179799  1
  H  H112  1  0.17458359  0.55629468  0.06418953  1
  H  H113  1  0.26868729  0.43621869  0.08532723  1
  H  H114  1  0.23690767  0.37619278  0.06419259  1
  H  H115  1  0.14121023  0.49550826  0.04358340  1
  H  H116  1  0.37039928  0.56850947  0.14716753  1
  H  H117  1  0.40449656  0.62003679  0.17023946  1
  H  H118  1  0.31514669  0.74971693  0.15340888  1
  H  H119  1  0.28428017  0.69982729  0.13003784  1
  H  H120  1  0.68918522  0.12191760  0.55975819  1
  H  H121  1  0.66269225  0.98918581  0.58986432  1
  H  H122  1  0.60782107  0.95226153  0.56821352  1
  H  H123  1  0.63522577  0.08396761  0.53800463  1
  H  H124  1  0.79192873  0.10556852  0.65136578  1
  H  H125  1  0.82930925  0.14529070  0.67628811  1
  H  H126  1  0.88259622  0.27161079  0.64757288  1
  H  H127  1  0.83323128  0.23983730  0.62400211  1
  H  H128  1  0.25405895  0.95655185  0.95437908  1
  H  H129  1  0.19817282  0.06034105  0.91707770  1
  H  H130  1  0.15723581  0.11352649  0.93813027  1
  H  H131  1  0.21874452  0.01330768  0.97546341  1
  H  H132  1  0.30822341  0.92073148  0.85390417  1
  H  H133  1  0.35499559  0.87075009  0.83344860  1
  H  H134  1  0.41439821  0.77236325  0.87163613  1
  H  H135  1  0.36412798  0.81963020  0.89184518  1
  H  H136  1  0.14735925  0.97843731  0.57529171  1
  H  H137  1  0.21700732  0.12793727  0.57609747  1
  H  H138  1  0.28401222  0.09607664  0.55799406  1
  H  H139  1  0.20592744  0.95131708  0.55369991  1
  H  H140  1  0.09150837  0.22998518  0.63665384  1
  H  H141  1  0.04641254  0.26761708  0.66019124  1
  H  H142  1  0.95493689  0.13155031  0.66369359  1
  H  H143  1  1.00258279  0.09255444  0.64143401  1
  H  H144  1  0.27415748  0.97199456  0.05665723  1
  H  H145  1  0.17202506  0.03959359  0.09127355  1
  H  H146  1  0.13213363  0.09182766  0.06924422  1
  H  H147  1  0.23887673  0.02951952  0.03515184  1
  H  H148  1  0.29314028  0.91441778  0.15345706  1
  H  H149  1  0.33814186  0.87432472  0.17734451  1
  H  H150  1  0.42797802  0.78335657  0.14489013  1
  H  H151  1  0.38979096  0.82893434  0.12139665  1
  H  H152  1  0.68274713  0.12128877  0.45182550  1
  H  H153  1  0.65599694  0.98333356  0.42426544  1
  H  H154  1  0.60327224  0.94913939  0.44644176  1
  H  H155  1  0.63255445  0.08522537  0.47437313  1
  H  H156  1  0.79769709  0.09503457  0.35884007  1
  H  H157  1  0.84303966  0.14164847  0.33734015  1
  H  H158  1  0.85935400  0.27166759  0.36918741  1
  H  H159  1  0.81093601  0.22634335  0.39024844  1
  C  C160  1  0.16979818  0.25246238  0.01299884  1
  C  C161  1  0.17024994  0.25221608  0.99646613  1
  C  C162  1  0.17296035  0.20332337  0.98715461  1
  C  C163  1  0.17234105  0.30151310  0.98725257  1
  C  C164  1  0.17128206  0.30166375  0.02217593  1
  C  C165  1  0.17190434  0.20386450  0.02259892  1
  C  C166  1  0.22080916  0.18015171  0.98447630  1
  C  C167  1  0.22376760  0.13398802  0.97640213  1
  C  C168  1  0.17954939  0.11132455  0.96983036  1
  C  C169  1  0.13182854  0.13372112  0.97269021  1
  C  C170  1  0.12851334  0.17827723  0.98180255  1
  C  C171  1  0.22062055  0.32384464  0.98540942  1
  C  C172  1  0.22502913  0.36898074  0.97683900  1
  C  C173  1  0.18178000  0.39282665  0.96969782  1
  C  C174  1  0.13307732  0.37452957  0.97353968  1
  C  C175  1  0.12848567  0.32879939  0.98207548  1
  C  C176  1  0.12693516  0.32887588  0.02638951  1
  C  C177  1  0.13058051  0.37462485  0.03488226  1
  C  C178  1  0.17871964  0.39288030  0.03976657  1
  C  C179  1  0.22287305  0.36790757  0.03425514  1
  C  C180  1  0.21940925  0.32331386  0.02542934  1
  C  C181  1  0.12728580  0.17924598  0.02768295  1
  C  C182  1  0.13041168  0.13454789  0.03682678  1
  C  C183  1  0.17813101  0.11153084  0.04004959  1
  C  C184  1  0.22248540  0.13459789  0.03405793  1
  C  C185  1  0.21972706  0.18085803  0.02593574  1
  C  C186  1  0.42555368  -0.00342692  0.51505240  1
  C  C187  1  0.42538697  -0.00034827  0.49853183  1
  C  C188  1  0.47329649  0.00244023  0.48904658  1
  C  C189  1  0.37695533  0.00219980  0.48876511  1
  C  C190  1  0.37666001  -0.00064961  0.52404413  1
  C  C191  1  0.47405117  -0.00011182  0.52472041  1
  C  C192  1  0.49332421  0.05097297  0.48526031  1
  C  C193  1  0.53756435  0.05488923  0.47651957  1
  C  C194  1  0.56315300  0.01066311  0.47110608  1
  C  C195  1  0.54288217  0.96209302  0.47473744  1
  C  C196  1  0.49907681  0.95806500  0.48383048  1
  C  C197  1  0.35606287  0.05075807  0.48500065  1
  C  C198  1  0.31041655  0.05467097  0.47653954  1
  C  C199  1  0.28476684  0.01042839  0.47110116  1
  C  C200  1  0.30605560  0.96184816  0.47459915  1
  C  C201  1  0.35083241  0.95780717  0.48370926  1
  C  C202  1  0.34994644  0.95586819  0.52939008  1
  C  C203  1  0.30523746  0.96156398  0.53801128  1
  C  C204  1  0.28644605  0.01104857  0.54146778  1
  C  C205  1  0.30825591  0.05331212  0.53347593  1
  C  C206  1  0.35406331  0.04812018  0.52565992  1
  C  C207  1  0.50107805  0.95613452  0.53015429  1
  C  C208  1  0.54598789  0.96114835  0.53913365  1
  C  C209  1  0.56617218  0.01008260  0.54235740  1
  C  C210  1  0.53960021  0.05372283  0.53655558  1
  C  C211  1  0.49431901  0.04885954  0.52795682  1
  C  C212  1  0.41726381  0.20747252  0.76562666  1
  C  C213  1  0.48427152  0.27005579  0.75424260  1
  C  C214  1  0.46365816  0.29468186  0.76882348  1
  C  C215  1  0.42942062  0.25773762  0.75901977  1
  C  C216  1  0.38821112  0.27859750  0.74966474  1
  C  C217  1  0.43318429  0.20754944  0.24750071  1
  C  C218  1  0.36674251  0.26965737  0.25969645  1
  C  C219  1  0.38513502  0.29466331  0.24483771  1
  C  C220  1  0.42106816  0.25764929  0.25420932  1
  C  C221  1  0.46305465  0.27845785  0.26304977  1
  C  C222  1  0.41481503  0.77935399  0.84030009  1
  C  C223  1  0.38632914  0.72707202  0.83596443  1
  C  C224  1  0.41814134  0.72831404  0.82118651  1
  C  C225  1  0.42839629  0.77972313  0.82282125  1
  C  C226  1  0.88905135  0.24739005  0.32265714  1
  C  C227  1  0.94008488  0.23794385  0.32104997  1
  C  C228  1  0.94334101  0.21039398  0.33697694  1
  C  C229  1  0.89100584  0.23747777  0.34057737  1
  C  C230  1  0.39979433  0.72512288  0.17238628  1
  C  C231  1  0.38003143  0.78016856  0.17600733  1
  C  C232  1  0.41022882  0.77483968  0.19156327  1
  C  C233  1  0.41462430  0.72280570  0.19006182  1
  C  C234  1  0.90443329  0.21278284  0.67652430  1
  C  C235  1  0.95733788  0.23590329  0.67232504  1
  C  C236  1  0.95966791  0.25220162  0.68982563  1
  C  C237  1  0.90839455  0.24522364  0.69143238  1
  C  C238  1  0.41952705  0.51131530  0.79541347  1
  C  C239  1  0.46656119  0.48499576  0.79381318  1
  C  C240  1  0.46836664  0.43518284  0.78727434  1
  C  C241  1  0.42396880  0.41387368  0.78225188  1
  C  C242  1  0.37740134  0.43603217  0.78352869  1
  C  C243  1  0.37473267  0.48584371  0.79011749  1
  C  C244  1  0.41749150  0.56076289  0.80207258  1
  C  C245  1  0.41741944  0.60458505  0.80840997  1
  C  C246  1  0.16441437  0.24024143  0.29553306  1
  C  C247  1  0.17312963  0.24292311  0.27858472  1
  C  C248  1  0.22315034  0.24425063  0.27266450  1
  C  C249  1  0.26161131  0.24305967  0.28378323  1
  C  C250  1  0.25696816  0.24022360  0.30011360  1
  C  C251  1  0.20723593  0.23894844  0.30625498  1
  C  C252  1  0.11473707  0.23879019  0.30152594  1
  C  C253  1  0.07078633  0.23731954  0.30729855  1
  C  C254  1  0.41945789  0.51141339  0.21699092  1
  C  C255  1  0.37493277  0.48092691  0.21726803  1
  C  C256  1  0.37587935  0.43124670  0.22410529  1
  C  C257  1  0.42030738  0.41406547  0.23073727  1
  C  C258  1  0.46474081  0.44023530  0.23073365  1
  C  C259  1  0.46463096  0.48997360  0.22386839  1
  C  C260  1  0.41881287  0.56103320  0.21005827  1
  C  C261  1  0.41612661  0.60546549  0.20408617  1
  C  C262  1  0.68727951  0.24079354  0.71806540  1
  C  C263  1  0.67883979  0.24471503  0.73499900  1
  C  C264  1  0.62890590  0.24611740  0.74100153  1
  C  C265  1  0.59031405  0.24375152  0.72996505  1
  C  C266  1  0.59466908  0.23963292  0.71366492  1
  C  C267  1  0.64430235  0.23825777  0.70744295  1
  C  C268  1  0.73685321  0.23930088  0.71198399  1
  C  C269  1  0.78065633  0.23804332  0.70609305  1
  C  C270  1  0.43121651  0.99233503  0.79670698  1
  C  C271  1  0.47818501  0.01395913  0.79194792  1
  C  C272  1  0.47994410  0.06415088  0.78551776  1
  C  C273  1  0.43534305  0.08978248  0.78405410  1
  C  C274  1  0.38898869  0.07278287  0.78828173  1
  C  C275  1  0.38652541  0.02270599  0.79472342  1
  C  C276  1  0.42892929  0.94229052  0.80321832  1
  C  C277  1  0.42456410  0.89761048  0.80882670  1
  C  C278  1  0.17841383  0.25455549  0.71739731  1
  C  C279  1  0.22112918  0.25137199  0.70711038  1
  C  C280  1  0.27106478  0.25304234  0.71366876  1
  C  C281  1  0.27638070  0.25782370  0.72999418  1
  C  C282  1  0.23799335  0.26101652  0.74067371  1
  C  C283  1  0.18780331  0.25948773  0.73435935  1
  C  C284  1  0.12841737  0.25293263  0.71107421  1
  C  C285  1  0.08406449  0.25103136  0.70512122  1
  C  C286  1  0.40495135  0.99272898  0.21722301  1
  C  C287  1  0.39536443  0.03575598  0.20699280  1
  C  C288  1  0.39707368  0.08580076  0.21332672  1
  C  C289  1  0.40850476  0.09022840  0.22930763  1
  C  C290  1  0.41775120  0.05193156  0.24003114  1
  C  C291  1  0.41621381  0.00153513  0.23390467  1
  C  C292  1  0.40312613  0.94275552  0.21096653  1
  C  C293  1  0.39995616  0.89930978  0.20450330  1
  C  C294  1  0.67364346  0.25306690  0.29553055  1
  C  C295  1  0.66236802  0.23861665  0.27924270  1
  C  C296  1  0.61204781  0.24080800  0.27303042  1
  C  C297  1  0.57559820  0.25799850  0.28305704  1
  C  C298  1  0.58265640  0.27242935  0.29871159  1
  C  C299  1  0.63271842  0.27031253  0.30517516  1
  C  C300  1  0.72355899  0.25043432  0.30195919  1
  C  C301  1  0.76854993  0.24655086  0.30732437  1
  C  C302  1  0.18741369  0.51283408  0.94316792  1
  C  C303  1  0.23127978  0.50077066  0.93403696  1
  C  C304  1  0.25497066  0.45211419  0.93664347  1
  C  C305  1  0.23660848  0.41880746  0.94800516  1
  C  C306  1  0.19384232  0.43187501  0.95738731  1
  C  C307  1  0.16834464  0.47863307  0.95442708  1
  C  C308  1  0.25270471  0.53313736  0.92243044  1
  C  C309  1  0.27670106  0.55536756  0.91187965  1
  C  C310  1  0.30324879  0.57871049  0.90027893  1
  C  C311  1  0.32666419  0.60062941  0.88952674  1
  C  C312  1  0.34669737  0.63026698  0.87692150  1
  C  C313  1  0.39004342  0.61679196  0.86775324  1
  C  C314  1  0.40550261  0.64651488  0.85468357  1
  C  C315  1  0.37654150  0.68967375  0.84979508  1
  C  C316  1  0.33559077  0.70500453  0.85948606  1
  C  C317  1  0.32167937  0.67714592  0.87288788  1
  C  C318  1  0.19607061  0.00988463  0.43480475  1
  C  C319  1  0.17388192  0.05943980  0.43635484  1
  C  C320  1  0.18044147  0.08516575  0.45145537  1
  C  C321  1  0.21200471  0.06525242  0.46340026  1
  C  C322  1  0.23987647  0.01984061  0.46059622  1
  C  C323  1  0.22695422  0.98958206  0.44696983  1
  C  C324  1  0.14493975  0.08279663  0.42392084  1
  C  C325  1  0.12015614  0.10489684  0.41322096  1
  C  C326  1  0.09315289  0.12900144  0.40156870  1
  C  C327  1  0.06875130  0.15024409  0.39060514  1
  C  C328  1  0.04203147  0.17111433  0.37721876  1
  C  C329  1  0.01583744  0.21875071  0.37759945  1
  C  C330  1  0.98710639  0.23584428  0.36434597  1
  C  C331  1  0.98467385  0.20649389  0.35000148  1
  C  C332  1  1.01785970  0.16447010  0.34862195  1
  C  C333  1  0.04199184  0.14433448  0.36220065  1
  C  C334  1  0.18773647  0.51658505  0.06416536  1
  C  C335  1  0.22443722  0.50090736  0.07607164  1
  C  C336  1  0.24144602  0.44900832  0.07598078  1
  C  C337  1  0.22468575  0.41613534  0.06414659  1
  C  C338  1  0.18895634  0.43250056  0.05217363  1
  C  C339  1  0.16903847  0.48255591  0.05269059  1
  C  C340  1  0.24444056  0.53318484  0.08809416  1
  C  C341  1  0.26429541  0.55686819  0.09934577  1
  C  C342  1  0.28602457  0.58110669  0.11191718  1
  C  C343  1  0.30558951  0.60343678  0.12349511  1
  C  C344  1  0.32563890  0.63068595  0.13673894  1
  C  C345  1  0.35931458  0.60859604  0.14852641  1
  C  C346  1  0.37907488  0.63751435  0.16113756  1
  C  C347  1  0.36697676  0.68998855  0.16226319  1
  C  C348  1  0.32942677  0.71087133  0.15168948  1
  C  C349  1  0.31062679  0.68255167  0.13891910  1
  C  C350  1  0.67014687  0.08533433  0.56165977  1
  C  C351  1  0.67752073  0.05972527  0.57681974  1
  C  C352  1  0.65550715  0.01035609  0.57859041  1
  C  C353  1  0.62431718  0.99012923  0.56659217  1
  C  C354  1  0.61084183  0.02017096  0.55286062  1
  C  C355  1  0.63818726  0.06556476  0.54988463  1
  C  C356  1  0.70684834  0.08284269  0.58910702  1
  C  C357  1  0.73170195  0.10454695  0.59977040  1
  C  C358  1  0.75876712  0.12821371  0.61138638  1
  C  C359  1  0.78303796  0.14903382  0.62236544  1
  C  C360  1  0.80924291  0.16993998  0.63576203  1
  C  C361  1  0.80966549  0.14329324  0.65087310  1
  C  C362  1  0.83246295  0.16404036  0.66450473  1
  C  C363  1  0.86434581  0.20687191  0.66321325  1
  C  C364  1  0.86231746  0.23544546  0.64861809  1
  C  C365  1  0.83475333  0.21769122  0.63529268  1
  C  C366  1  0.23418320  -0.00818590  0.95088494  1
  C  C367  1  0.23003117  0.00497364  0.93415840  1
  C  C368  1  0.20100073  0.04944261  0.92987577  1
  C  C369  1  0.17887353  0.07929181  0.94157308  1
  C  C370  1  0.18870886  0.06892076  0.95812716  1
  C  C371  1  0.21503521  0.02387916  0.96266746  1
  C  C372  1  0.25237580  0.97588067  0.92186437  1
  C  C373  1  0.27118525  0.95228248  0.91055722  1
  C  C374  1  0.29148240  0.92686538  0.89813926  1
  C  C375  1  0.31017774  0.90347504  0.88676983  1
  C  C376  1  0.33400713  0.87520178  0.87453592  1
  C  C377  1  0.33124057  0.88772942  0.85771505  1
  C  C378  1  0.35702833  0.85918117  0.84622419  1
  C  C379  1  0.38813252  0.81760668  0.85115335  1
  C  C380  1  0.39057210  0.80457802  0.86775542  1
  C  C381  1  0.36330800  0.83138718  0.87908339  1
  C  C382  1  0.17616747  0.00477883  0.57086991  1
  C  C383  1  0.17804474  0.05502140  0.57744061  1
  C  C384  1  0.21576761  0.08881424  0.57143723  1
  C  C385  1  0.25096673  0.07246959  0.56041446  1
  C  C386  1  0.24736781  0.02318438  0.55344548  1
  C  C387  1  0.20971357  0.98930228  0.55902697  1
  C  C388  1  0.14603303  0.07273011  0.58969774  1
  C  C389  1  0.12179544  0.09227367  0.60071296  1
  C  C390  1  0.09743541  0.11503770  0.61288815  1
  C  C391  1  0.07514520  0.13590797  0.62407663  1
  C  C392  1  0.04983769  0.15865531  0.63709882  1
  C  C393  1  0.06202542  0.20841305  0.64284412  1
  C  C394  1  0.03604377  0.22988702  0.65562615  1
  C  C395  1  0.99415906  0.20478741  0.66240136  1
  C  C396  1  0.98444009  0.15371115  0.65779014  1
  C  C397  1  1.01126087  0.13151764  0.64537308  1
  C  C398  1  0.24435935  -0.00024016  0.05943962  1
  C  C399  1  0.22719228  0.00327206  0.07569505  1
  C  C400  1  0.18556221  0.03676562  0.07884655  1
  C  C401  1  0.16414159  0.06655367  0.06666296  1
  C  C402  1  0.18697732  0.06803624  0.05126932  1
  C  C403  1  0.22537695  0.03226404  0.04757499  1
  C  C404  1  0.25030412  0.97397736  0.08807676  1
  C  C405  1  0.27130670  0.94953259  0.09907334  1
  C  C406  1  0.29416479  0.92298884  0.11105349  1
  C  C407  1  0.31498455  0.89943020  0.12228285  1
  C  C408  1  0.33815604  0.87460072  0.13563377  1
  C  C409  1  0.32411626  0.88696157  0.15178329  1
  C  C410  1  0.34735324  0.86317611  0.16495687  1
  C  C411  1  0.37891969  0.82033125  0.16264655  1
  C  C412  1  0.39817824  0.81171136  0.14692427  1
  C  C413  1  0.37732765  0.83752381  0.13370123  1
  C  C414  1  0.66437557  0.08403348  0.45061135  1
  C  C415  1  0.67063281  0.05605530  0.43598485  1
  C  C416  1  0.64928405  0.00607977  0.43512821  1
  C  C417  1  0.61938294  0.98741528  0.44739442  1
  C  C418  1  0.60678262  0.01952059  0.46052971  1
  C  C419  1  0.63411560  0.06544389  0.46276552  1
  C  C420  1  0.69839990  0.07639222  0.42311847  1
  C  C421  1  0.72223524  0.09470281  0.41181097  1
  C  C422  1  0.74820310  0.11465392  0.39951093  1
  C  C423  1  0.77217631  0.13352463  0.38832833  1
  C  C424  1  0.79959907  0.15764813  0.37601377  1
  C  C425  1  0.81018292  0.13435304  0.36087236  1
  C  C426  1  0.83649524  0.16026741  0.34896616  1
  C  C427  1  0.85443279  0.21048723  0.35171163  1
  C  C428  1  0.84493672  0.23338090  0.36679602  1
  C  C429  1  0.81809675  0.20809528  0.37857901  1
