# generated using pymatgen
data_FeH238C344S2(NO3)4
_symmetry_space_group_name_H-M   'P 1'
_cell_length_a   78.39863986
_cell_length_b   78.43746561
_cell_length_c   41.53207334
_cell_angle_alpha   90.04294883
_cell_angle_beta   90.03475374
_cell_angle_gamma   103.81965706
_symmetry_Int_Tables_number   1
_chemical_formula_structural   FeH238C344S2(NO3)4
_chemical_formula_sum   'Fe1 H238 C344 S2 N4 O12'
_cell_volume   248003.65934262
_cell_formula_units_Z   1
loop_
 _symmetry_equiv_pos_site_id
 _symmetry_equiv_pos_as_xyz
  1  'x, y, z'
loop_
 _atom_site_type_symbol
 _atom_site_label
 _atom_site_symmetry_multiplicity
 _atom_site_fract_x
 _atom_site_fract_y
 _atom_site_fract_z
 _atom_site_occupancy
  Fe  Fe0  1  0.50742660  0.50735250  0.50184610  1
  H  H1  1  0.00895283  0.46976787  0.96607821  1
  H  H2  1  0.02475796  0.46470803  0.91704003  1
  H  H3  1  0.05262692  0.51912540  0.91620635  1
  H  H4  1  0.03694607  0.52431317  0.96531252  1
  H  H5  1  0.00903347  0.46976629  0.03767968  1
  H  H6  1  0.02482207  0.46465380  0.08668464  1
  H  H7  1  0.03698232  0.52430391  0.03889190  1
  H  H8  1  0.00336324  0.53362125  0.03762960  1
  H  H9  1  0.98758103  0.53870800  0.08665961  1
  H  H10  1  0.95968454  0.48429691  0.08756713  1
  H  H11  1  0.97534884  0.47908876  0.03845933  1
  H  H12  1  0.00336324  0.53361753  0.96636290  1
  H  H13  1  0.98754953  0.53873010  0.91731033  1
  H  H14  1  0.95971727  0.48430603  0.91595955  1
  H  H15  1  0.97538285  0.47904182  0.96509761  1
  H  H16  1  0.05264968  0.51907278  0.08796346  1
  H  H17  1  0.47908079  0.97535726  0.96490335  1
  H  H18  1  0.48432778  0.95971093  0.91581519  1
  H  H19  1  0.53878029  0.98752147  0.91716301  1
  H  H20  1  0.53364953  0.00329891  0.96617405  1
  H  H21  1  0.47907584  0.97537711  0.03842494  1
  H  H22  1  0.48429251  0.95971425  0.08753630  1
  H  H23  1  0.53365110  0.00337683  0.03759824  1
  H  H24  1  0.52441640  0.03693684  0.03861905  1
  H  H25  1  0.51919086  0.05260679  0.08775404  1
  H  H26  1  0.46472297  0.02483115  0.08649257  1
  H  H27  1  0.46980970  0.00901015  0.03745057  1
  H  H28  1  0.52436610  0.03698015  0.96521758  1
  H  H29  1  0.51917861  0.05265964  0.91614417  1
  H  H30  1  0.46473085  0.02482440  0.91700247  1
  H  H31  1  0.46980076  0.00901062  0.96599327  1
  H  H32  1  0.53873351  0.98756936  0.08661312  1
  H  H33  1  0.50137867  0.47843083  0.45181718  1
  H  H34  1  0.49677817  0.44591425  0.44986514  1
  H  H35  1  0.49665348  0.44615423  0.55396332  1
  H  H36  1  0.50274237  0.47877598  0.55178338  1
  H  H37  1  0.47871528  0.50152118  0.55190197  1
  H  H38  1  0.44615384  0.49693795  0.55398169  1
  H  H39  1  0.44612502  0.49652077  0.44987750  1
  H  H40  1  0.47877933  0.50260087  0.45184633  1
  H  H41  1  0.49742261  0.53430307  0.45889436  1
  H  H42  1  0.50060000  0.56675085  0.45827170  1
  H  H43  1  0.53075542  0.56965854  0.54622435  1
  H  H44  1  0.52677870  0.53714403  0.54286098  1
  H  H45  1  0.52103168  0.50105650  0.43382127  1
  H  H46  1  0.53446000  0.49755020  0.54486676  1
  H  H47  1  0.56690858  0.50072872  0.54554814  1
  H  H48  1  0.56974046  0.53069304  0.45749287  1
  H  H49  1  0.53722783  0.52667328  0.46081632  1
  H  H50  1  0.50122452  0.52115822  0.56988812  1
  H  H51  1  0.11715591  0.47012306  0.30889493  1
  H  H52  1  0.09926374  0.43048678  0.31643478  1
  H  H53  1  0.11009491  0.41589863  0.36170778  1
  H  H54  1  0.12964660  0.41646046  0.40781132  1
  H  H55  1  0.15217355  0.47164345  0.39272822  1
  H  H56  1  0.13284630  0.47146184  0.34600246  1
  H  H57  1  0.15291870  0.41855197  0.43541694  1
  H  H58  1  0.13586076  0.42572506  0.45553823  1
  H  H59  1  0.13296575  0.45135515  0.52392170  1
  H  H60  1  0.12732221  0.43016890  0.50703368  1
  H  H61  1  0.13221057  0.44895392  0.48181153  1
  H  H62  1  0.17784966  0.42598967  0.42484770  1
  H  H63  1  0.18609665  0.41242098  0.45177813  1
  H  H64  1  0.19940370  0.43292895  0.43926603  1
  H  H65  1  0.19215024  0.46402626  0.57190602  1
  H  H66  1  0.20878462  0.46832527  0.54212170  1
  H  H67  1  0.20415357  0.44829792  0.56360712  1
  H  H68  1  0.21516528  0.43906878  0.52062152  1
  H  H69  1  0.21257176  0.43374024  0.47878428  1
  H  H70  1  0.23665256  0.43512963  0.49663697  1
  H  H71  1  0.26824508  0.43971867  0.50058179  1
  H  H72  1  0.27418944  0.49549750  0.48562574  1
  H  H73  1  0.24174578  0.49071315  0.48262817  1
  H  H74  1  0.30014177  0.48492307  0.49240722  1
  H  H75  1  0.29632082  0.44497782  0.50339935  1
  H  H76  1  0.17066546  0.47061870  0.56381303  1
  H  H77  1  0.14850982  0.46243710  0.55234517  1
  H  H78  1  0.15451634  0.47829001  0.59367464  1
  H  H79  1  0.13548865  0.48602669  0.63504952  1
  H  H80  1  0.12215567  0.43194606  0.66777282  1
  H  H81  1  0.14094155  0.42425301  0.62500553  1
  H  H82  1  0.11649912  0.47893296  0.68015254  1
  H  H83  1  0.10672446  0.44014062  0.70299057  1
  H  H84  1  0.44393012  0.10883930  0.30562714  1
  H  H85  1  0.48366620  0.11318577  0.31952865  1
  H  H86  1  0.49665333  0.13039322  0.36302538  1
  H  H87  1  0.49572888  0.14983566  0.40874722  1
  H  H88  1  0.44020513  0.14470580  0.39321751  1
  H  H89  1  0.44102116  0.12530777  0.34645975  1
  H  H90  1  0.49352999  0.17131369  0.43530890  1
  H  H91  1  0.48644174  0.15075922  0.45529598  1
  H  H92  1  0.46067145  0.13551857  0.52346265  1
  H  H93  1  0.48192316  0.13979291  0.50690627  1
  H  H94  1  0.46321004  0.13605615  0.48141521  1
  H  H95  1  0.48713262  0.19288149  0.42540009  1
  H  H96  1  0.50062782  0.20763949  0.45242172  1
  H  H97  1  0.48004963  0.21097688  0.43992257  1
  H  H98  1  0.44910478  0.18876967  0.57237243  1
  H  H99  1  0.44480198  0.20340965  0.54258829  1
  H  H100  1  0.46485644  0.20829766  0.56410219  1
  H  H101  1  0.47440855  0.22376684  0.52152577  1
  H  H102  1  0.47997951  0.22366137  0.47984809  1
  H  H103  1  0.47919189  0.24688409  0.49676081  1
  H  H104  1  0.47595724  0.27637131  0.50066712  1
  H  H105  1  0.41965549  0.25775426  0.48570764  1
  H  H106  1  0.42339024  0.22733400  0.48268872  1
  H  H107  1  0.43296013  0.29057164  0.49269801  1
  H  H108  1  0.47330020  0.29959710  0.50406674  1
  H  H109  1  0.44145920  0.16381141  0.56329459  1
  H  H110  1  0.44987591  0.14567571  0.55202647  1
  H  H111  1  0.43372928  0.14311254  0.59361460  1
  H  H112  1  0.42630568  0.12056173  0.63517544  1
  H  H113  1  0.48062334  0.13453227  0.66812260  1
  H  H114  1  0.48766323  0.15668381  0.62544818  1
  H  H115  1  0.43505124  0.10476809  0.68272620  1
  H  H116  1  0.47472988  0.11779575  0.69926290  1
  H  H117  1  0.90471060  0.56069388  0.69807308  1
  H  H118  1  0.89960950  0.52087563  0.68421636  1
  H  H119  1  0.88224515  0.50815977  0.64070397  1
  H  H120  1  0.86291363  0.50946369  0.59496970  1
  H  H121  1  0.86908466  0.56511163  0.61051510  1
  H  H122  1  0.88837919  0.56391482  0.65728226  1
  H  H123  1  0.84160154  0.51207907  0.56843346  1
  H  H124  1  0.86221380  0.51880508  0.54845686  1
  H  H125  1  0.87788075  0.54439699  0.48028212  1
  H  H126  1  0.87323156  0.52314477  0.49683100  1
  H  H127  1  0.87731250  0.54185928  0.52233004  1
  H  H128  1  0.82024401  0.51889935  0.57836695  1
  H  H129  1  0.80529821  0.50563610  0.55132764  1
  H  H130  1  0.80236677  0.52635624  0.56383371  1
  H  H131  1  0.82509613  0.55699812  0.43140276  1
  H  H132  1  0.81061392  0.56163474  0.46118230  1
  H  H133  1  0.80533620  0.54158570  0.43969360  1
  H  H134  1  0.78975721  0.53229717  0.48226231  1
  H  H135  1  0.78975705  0.52669606  0.52393907  1
  H  H136  1  0.76669907  0.52796082  0.50701672  1
  H  H137  1  0.73741914  0.53181952  0.50309169  1
  H  H138  1  0.75710653  0.58798107  0.51803365  1
  H  H139  1  0.78732124  0.58361014  0.52106744  1
  H  H140  1  0.72420188  0.57530430  0.51099597  1
  H  H141  1  0.71438067  0.53496922  0.49968727  1
  H  H142  1  0.85007921  0.56424417  0.44054584  1
  H  H143  1  0.86797387  0.55542362  0.45172992  1
  H  H144  1  0.87075824  0.57160011  0.41018523  1
  H  H145  1  0.89336042  0.57863952  0.36862640  1
  H  H146  1  0.87844843  0.52437326  0.33566340  1
  H  H147  1  0.85625192  0.51771101  0.37833769  1
  H  H148  1  0.90892310  0.56955587  0.32105408  1
  H  H149  1  0.89522198  0.52994877  0.30462458  1
  H  H150  1  0.53433356  0.89579968  0.69484447  1
  H  H151  1  0.57381825  0.91436705  0.68724381  1
  H  H152  1  0.58867797  0.90387655  0.64195536  1
  H  H153  1  0.58847691  0.88440767  0.59585818  1
  H  H154  1  0.53345148  0.86094866  0.61098871  1
  H  H155  1  0.53327743  0.88019171  0.65770580  1
  H  H156  1  0.58682954  0.86124978  0.56825942  1
  H  H157  1  0.57927144  0.87807375  0.54816673  1
  H  H158  1  0.55346989  0.88047139  0.47981084  1
  H  H159  1  0.57465045  0.88648499  0.49670979  1
  H  H160  1  0.55586387  0.88124657  0.52192274  1
  H  H161  1  0.57980589  0.83631474  0.57885024  1
  H  H162  1  0.59360816  0.82836488  0.55194236  1
  H  H163  1  0.57324816  0.81473802  0.56444637  1
  H  H164  1  0.54184397  0.82132443  0.43182108  1
  H  H165  1  0.53786211  0.80470827  0.46162645  1
  H  H166  1  0.55788770  0.80969341  0.44010460  1
  H  H167  1  0.56737622  0.79892291  0.48309269  1
  H  H168  1  0.57269077  0.80162113  0.52492626  1
  H  H169  1  0.57176231  0.77766649  0.50712858  1
  H  H170  1  0.56776207  0.74615510  0.50318431  1
  H  H171  1  0.51181745  0.73915609  0.51813569  1
  H  H172  1  0.51599116  0.77152329  0.52112153  1
  H  H173  1  0.52296704  0.71355372  0.51129129  1
  H  H174  1  0.56305401  0.71817723  0.50040518  1
  H  H175  1  0.53483200  0.84258216  0.43990078  1
  H  H176  1  0.54261613  0.86477721  0.45139916  1
  H  H177  1  0.52681061  0.85850538  0.41010760  1
  H  H178  1  0.51866107  0.87727584  0.36872805  1
  H  H179  1  0.57274995  0.89159551  0.33598342  1
  H  H180  1  0.58085517  0.87305443  0.37874064  1
  H  H181  1  0.52541887  0.89629892  0.32364189  1
  H  H182  1  0.56420003  0.90677404  0.30073631  1
  H  H183  1  0.38998759  0.49025218  0.44988496  1
  H  H184  1  0.35531802  0.47998340  0.44923854  1
  H  H185  1  0.35448910  0.49088676  0.54178649  1
  H  H186  1  0.38914852  0.50125700  0.54140032  1
  H  H187  1  0.39194132  0.45408236  0.51344155  1
  H  H188  1  0.35725048  0.44387675  0.51365742  1
  H  H189  1  0.48312475  0.39006550  0.44804074  1
  H  H190  1  0.47254058  0.35541864  0.44725113  1
  H  H191  1  0.44602491  0.35662191  0.52672722  1
  H  H192  1  0.45622909  0.39129743  0.52717579  1
  H  H193  1  0.50543664  0.38846780  0.53110595  1
  H  H194  1  0.49516011  0.35378779  0.53149432  1
  H  H195  1  0.62525741  0.50402301  0.47513017  1
  H  H196  1  0.66000724  0.51330161  0.47527454  1
  H  H197  1  0.65917112  0.53859804  0.55630012  1
  H  H198  1  0.62443769  0.52901534  0.55623898  1
  H  H199  1  0.62343621  0.55331635  0.47416016  1
  H  H200  1  0.65814433  0.56307247  0.47450778  1
  H  H201  1  0.52716227  0.62386229  0.44801981  1
  H  H202  1  0.53683545  0.65857056  0.44757553  1
  H  H203  1  0.56342781  0.65820123  0.52656662  1
  H  H204  1  0.55430168  0.62349773  0.52717149  1
  H  H205  1  0.50446378  0.62445436  0.53123794  1
  H  H206  1  0.51351740  0.65914504  0.53199848  1
  H  H207  1  0.07450583  0.50518618  0.81593612  1
  H  H208  1  0.08980914  0.49621840  0.76895350  1
  H  H209  1  0.06990737  0.44197000  0.79459740  1
  H  H210  1  0.05469060  0.45102778  0.84150470  1
  H  H211  1  0.48229279  0.04423223  0.79757835  1
  H  H212  1  0.47310251  0.05931222  0.75053879  1
  H  H213  1  0.46465027  0.10035954  0.81255647  1
  H  H214  1  0.47380184  0.08521865  0.85952228  1
  H  H215  1  0.95192446  0.50369387  0.20212062  1
  H  H216  1  0.93699582  0.51315873  0.24908529  1
  H  H217  1  0.92916247  0.55738426  0.19517584  1
  H  H218  1  0.94410310  0.54787554  0.14828600  1
  H  H219  1  0.51266460  0.96261199  0.20643638  1
  H  H220  1  0.52188207  0.94761277  0.25360141  1
  H  H221  1  0.54807165  0.91860051  0.19044050  1
  H  H222  1  0.53878760  0.93361854  0.14342920  1
  H  H223  1  0.49515587  0.08900992  0.15909122  1
  H  H224  1  0.48603953  0.10423924  0.20607048  1
  H  H225  1  0.45210774  0.05552190  0.23736472  1
  H  H226  1  0.46125488  0.04037559  0.19032555  1
  H  H227  1  0.06075676  0.45207716  0.15540495  1
  H  H228  1  0.07588208  0.44276190  0.20217552  1
  H  H229  1  0.08393534  0.49457189  0.24243026  1
  H  H230  1  0.06880974  0.50380257  0.19556401  1
  H  H231  1  0.92503944  0.52453506  0.85783101  1
  H  H232  1  0.91003870  0.53390567  0.81077057  1
  H  H233  1  0.95616529  0.53624912  0.75318895  1
  H  H234  1  0.97110396  0.52690551  0.80037079  1
  H  H235  1  0.55217322  0.96297289  0.83493634  1
  H  H236  1  0.56176899  0.94812602  0.78806522  1
  H  H237  1  0.50878514  0.91789636  0.77463671  1
  H  H238  1  0.49929020  0.93276201  0.82157627  1
  C  C239  1  0.99815856  0.50359334  0.00190019  1
  C  C240  1  0.01424224  0.49976000  0.00197779  1
  C  C241  1  0.02304979  0.49705633  0.97099185  1
  C  C242  1  0.02305920  0.49706686  0.03298565  1
  C  C243  1  0.98931435  0.50631829  0.03282703  1
  C  C244  1  0.98933729  0.50628973  0.97092163  1
  C  C245  1  0.01889084  0.48050288  0.95572916  1
  C  C246  1  0.02730731  0.47777081  0.92774457  1
  C  C247  1  0.03961878  0.49156376  0.91238747  1
  C  C248  1  0.04301612  0.50832711  0.92716896  1
  C  C249  1  0.03462914  0.51109436  0.95532539  1
  C  C250  1  0.01895491  0.48050275  0.04813029  1
  C  C251  1  0.02738461  0.47774111  0.07612674  1
  C  C252  1  0.03969843  0.49149711  0.09165927  1
  C  C253  1  0.04304980  0.50826772  0.07694001  1
  C  C254  1  0.03465338  0.51106955  0.04877770  1
  C  C255  1  0.99343493  0.52288876  0.04801619  1
  C  C256  1  0.98501737  0.52563451  0.07599741  1
  C  C257  1  0.97271354  0.51185385  0.09142364  1
  C  C258  1  0.96930183  0.49509349  0.07661709  1
  C  C259  1  0.97768734  0.49230770  0.04845912  1
  C  C260  1  0.99345239  0.52289076  0.95587440  1
  C  C261  1  0.98504521  0.52565378  0.92791175  1
  C  C262  1  0.97278948  0.51184467  0.91240873  1
  C  C263  1  0.96934279  0.49506799  0.92704487  1
  C  C264  1  0.97772037  0.49226883  0.95519279  1
  C  C265  1  0.49982312  0.01420993  0.00181157  1
  C  C266  1  0.50362624  0.99811918  0.00178339  1
  C  C267  1  0.50632620  0.98928904  0.97080114  1
  C  C268  1  0.50633436  0.98931214  0.03275978  1
  C  C269  1  0.49714215  0.02303418  0.03279870  1
  C  C270  1  0.49711631  0.02304068  0.97085716  1
  C  C271  1  0.49232219  0.97769223  0.95501391  1
  C  C272  1  0.49513325  0.96930904  0.92684363  1
  C  C273  1  0.51191750  0.97268580  0.91213825  1
  C  C274  1  0.52568249  0.98497338  0.92770434  1
  C  C275  1  0.52291147  0.99338996  0.95569635  1
  C  C276  1  0.49230249  0.97770932  0.04840740  1
  C  C277  1  0.49508175  0.96933329  0.07656296  1
  C  C278  1  0.51184994  0.97275868  0.09133874  1
  C  C279  1  0.52565745  0.98503835  0.07593717  1
  C  C280  1  0.52291293  0.99345003  0.04796849  1
  C  C281  1  0.51118491  0.03462034  0.04853249  1
  C  C282  1  0.50840313  0.04300305  0.07668646  1
  C  C283  1  0.49161999  0.03959607  0.09134806  1
  C  C284  1  0.47780267  0.02733428  0.07587854  1
  C  C285  1  0.48055060  0.01891904  0.04790776  1
  C  C286  1  0.51114053  0.03465342  0.95522267  1
  C  C287  1  0.50836669  0.04304674  0.92706643  1
  C  C288  1  0.49160544  0.03965580  0.91223294  1
  C  C289  1  0.47781179  0.02736443  0.92765631  1
  C  C290  1  0.48054767  0.01893428  0.95563196  1
  C  C291  1  0.50121825  0.47079899  0.47386181  1
  C  C292  1  0.49798462  0.45268860  0.47301054  1
  C  C293  1  0.49591483  0.44293667  0.50195770  1
  C  C294  1  0.49805202  0.45285659  0.53076386  1
  C  C295  1  0.50169154  0.47098240  0.52969302  1
  C  C296  1  0.47102473  0.50132196  0.52989564  1
  C  C297  1  0.45293125  0.49814177  0.53085125  1
  C  C298  1  0.44316103  0.49608882  0.50192741  1
  C  C299  1  0.45293168  0.49803472  0.47300393  1
  C  C300  1  0.47105012  0.50162903  0.47398221  1
  C  C301  1  0.50439515  0.54266623  0.47806197  1
  C  C302  1  0.50648588  0.56065880  0.47758703  1
  C  C303  1  0.51637378  0.57115025  0.50201359  1
  C  C304  1  0.52332376  0.56222226  0.52644726  1
  C  C305  1  0.52089328  0.54424716  0.52507065  1
  C  C306  1  0.54281581  0.50447943  0.52567991  1
  C  C307  1  0.56083293  0.50659174  0.52618246  1
  C  C308  1  0.57138002  0.51643611  0.50180453  1
  C  C309  1  0.56237167  0.52330404  0.47733663  1
  C  C310  1  0.54436342  0.52084426  0.47865271  1
  C  C311  1  0.10797386  0.45759799  0.30314147  1
  C  C312  1  0.10815257  0.44308025  0.32211843  1
  C  C313  1  0.11964883  0.44357297  0.34944153  1
  C  C314  1  0.11922662  0.42825019  0.36807775  1
  C  C315  1  0.13016083  0.42851752  0.39438157  1
  C  C316  1  0.14195876  0.44419108  0.40311348  1
  C  C317  1  0.14290372  0.45952211  0.38545933  1
  C  C318  1  0.13191445  0.45926064  0.35914486  1
  C  C319  1  0.14986675  0.42947558  0.44907595  1
  C  C320  1  0.16151917  0.43465960  0.47753596  1
  C  C321  1  0.17942475  0.43459655  0.47478285  1
  C  C322  1  0.19090007  0.44204976  0.49986776  1
  C  C323  1  0.18496481  0.45000442  0.52674596  1
  C  C324  1  0.16713853  0.45050130  0.52780889  1
  C  C325  1  0.15510790  0.44278288  0.50372407  1
  C  C326  1  0.13606513  0.44335880  0.50421050  1
  C  C327  1  0.18600234  0.42616978  0.44635496  1
  C  C328  1  0.19802276  0.45806385  0.55227642  1
  C  C329  1  0.20997117  0.44263866  0.49754740  1
  C  C330  1  0.23721051  0.46276890  0.49012773  1
  C  C331  1  0.24474600  0.44848112  0.49471351  1
  C  C332  1  0.26282404  0.45110901  0.49659093  1
  C  C333  1  0.27408634  0.46811512  0.49346058  1
  C  C334  1  0.26590900  0.48228376  0.48823893  1
  C  C335  1  0.24779157  0.47970166  0.48651713  1
  C  C336  1  0.29295124  0.47128057  0.49517898  1
  C  C337  1  0.30274674  0.45886248  0.49992329  1
  C  C338  1  0.16093692  0.45867831  0.55635863  1
  C  C339  1  0.14860282  0.45066692  0.60678157  1
  C  C340  1  0.14723428  0.46810190  0.60965174  1
  C  C341  1  0.13666811  0.47248726  0.63322700  1
  C  C342  1  0.12738997  0.45979181  0.65528410  1
  C  C343  1  0.12920980  0.44222019  0.65174785  1
  C  C344  1  0.13983899  0.43778048  0.62796288  1
  C  C345  1  0.11689977  0.46513043  0.67995877  1
  C  C346  1  0.10742675  0.45424439  0.70334775  1
  C  C347  1  0.45744378  0.10768101  0.30237182  1
  C  C348  1  0.47065394  0.11546066  0.32370660  1
  C  C349  1  0.46905623  0.12637157  0.35073205  1
  C  C350  1  0.48424770  0.13347532  0.36943936  1
  C  C351  1  0.48370401  0.14429568  0.39539575  1
  C  C352  1  0.46779430  0.14825205  0.40370734  1
  C  C353  1  0.45247249  0.14150033  0.38607835  1
  C  C354  1  0.45304784  0.13063341  0.35991944  1
  C  C355  1  0.48272732  0.16302936  0.44917219  1
  C  C356  1  0.47795343  0.17216964  0.47788114  1
  C  C357  1  0.47846029  0.19018548  0.47535797  1
  C  C358  1  0.47116278  0.19808333  0.50061072  1
  C  C359  1  0.46301343  0.18827879  0.52726135  1
  C  C360  1  0.46210134  0.17012894  0.52810869  1
  C  C361  1  0.46967306  0.16180066  0.50384572  1
  C  C362  1  0.46881614  0.14243200  0.50394597  1
  C  C363  1  0.48689860  0.20086324  0.44699343  1
  C  C364  1  0.45504419  0.19752087  0.55278978  1
  C  C365  1  0.47085472  0.21692862  0.49838484  1
  C  C366  1  0.45135030  0.23508702  0.49029386  1
  C  C367  1  0.46599755  0.24903541  0.49479165  1
  C  C368  1  0.46407247  0.26610304  0.49660221  1
  C  C369  1  0.44748980  0.27017611  0.49339068  1
  C  C370  1  0.43280117  0.25554212  0.48830905  1
  C  C371  1  0.43471390  0.23835444  0.48662563  1
  C  C372  1  0.44608232  0.28828825  0.49499820  1
  C  C373  1  0.46043904  0.30240118  0.49972440  1
  C  C374  1  0.45352747  0.15987855  0.55629715  1
  C  C375  1  0.46127959  0.15109092  0.60694581  1
  C  C376  1  0.44398914  0.14099667  0.60978243  1
  C  C377  1  0.43981190  0.12837299  0.63359243  1
  C  C378  1  0.45270054  0.12547571  0.65578352  1
  C  C379  1  0.47007706  0.13613396  0.65216667  1
  C  C380  1  0.47422690  0.14883969  0.62830579  1
  C  C381  1  0.44856510  0.11247961  0.68087661  1
  C  C382  1  0.46129248  0.10978553  0.70220233  1
  C  C383  1  0.90557577  0.54709832  0.70133984  1
  C  C384  1  0.89759488  0.53397934  0.68000259  1
  C  C385  1  0.88677607  0.53579055  0.65297933  1
  C  C386  1  0.87941565  0.52067184  0.63427955  1
  C  C387  1  0.86865885  0.52142825  0.60832651  1
  C  C388  1  0.86503118  0.53748104  0.60002403  1
  C  C389  1  0.87204076  0.55273540  0.61765335  1
  C  C390  1  0.88284487  0.55194745  0.64380963  1
  C  C391  1  0.85006111  0.52276113  0.55456937  1
  C  C392  1  0.84105695  0.52771862  0.52586266  1
  C  C393  1  0.82311011  0.52755361  0.52840398  1
  C  C394  1  0.81538964  0.53502450  0.50314923  1
  C  C395  1  0.82530818  0.54304305  0.47652243  1
  C  C396  1  0.84339955  0.54362825  0.47568980  1
  C  C397  1  0.85154709  0.53585498  0.49992499  1
  C  C398  1  0.87085062  0.53635103  0.49980582  1
  C  C399  1  0.81230901  0.51928783  0.55676515  1
  C  C400  1  0.81626412  0.55122346  0.45099420  1
  C  C401  1  0.79664507  0.53571626  0.50539678  1
  C  C402  1  0.77901267  0.55568688  0.51348812  1
  C  C403  1  0.76483165  0.54125643  0.50898236  1
  C  C404  1  0.74789016  0.54354060  0.50714570  1
  C  C405  1  0.74419961  0.56028887  0.51032818  1
  C  C406  1  0.75905525  0.57474119  0.51543546  1
  C  C407  1  0.77611769  0.57246670  0.51714007  1
  C  C408  1  0.72622430  0.56208985  0.50865234  1
  C  C409  1  0.71188900  0.54797013  0.50387177  1
  C  C410  1  0.85375816  0.55204535  0.44750503  1
  C  C411  1  0.86230575  0.54409515  0.39683234  1
  C  C412  1  0.87267784  0.56126636  0.39400832  1
  C  C413  1  0.88533008  0.56522771  0.37021095  1
  C  C414  1  0.88797884  0.55223195  0.34803311  1
  C  C415  1  0.87704458  0.53498554  0.35162775  1
  C  C416  1  0.86430889  0.53105408  0.37547771  1
  C  C417  1  0.90099019  0.55613664  0.32294132  1
  C  C418  1  0.90344374  0.54328906  0.30167587  1
  C  C419  1  0.54675358  0.90516023  0.70058247  1
  C  C420  1  0.56133640  0.90527625  0.68156743  1
  C  C421  1  0.56105449  0.89383625  0.65424519  1
  C  C422  1  0.57644081  0.89455312  0.63559650  1
  C  C423  1  0.57637373  0.88366837  0.60929744  1
  C  C424  1  0.56084519  0.87163125  0.60058556  1
  C  C425  1  0.54545824  0.87039988  0.61824681  1
  C  C426  1  0.54551769  0.88134059  0.64455673  1
  C  C427  1  0.57578592  0.86406817  0.55461598  1
  C  C428  1  0.57080395  0.85238282  0.52615217  1
  C  C429  1  0.57120495  0.83457314  0.52890992  1
  C  C430  1  0.56393493  0.82301499  0.50382798  1
  C  C431  1  0.55581986  0.82875994  0.47695857  1
  C  C432  1  0.55497545  0.84648132  0.47590709  1
  C  C433  1  0.56251145  0.85860196  0.49997641  1
  C  C434  1  0.56156333  0.87753240  0.49951372  1
  C  C435  1  0.57978839  0.82819575  0.55735098  1
  C  C436  1  0.54796042  0.81560804  0.45144572  1
  C  C437  1  0.56369903  0.80403480  0.50616391  1
  C  C438  1  0.54398943  0.77657286  0.51362421  1
  C  C439  1  0.55850051  0.76935936  0.50905100  1
  C  C440  1  0.55621227  0.75133086  0.50717407  1
  C  C441  1  0.53933671  0.73980522  0.51029885  1
  C  C442  1  0.52493348  0.74765519  0.51552525  1
  C  C443  1  0.52717565  0.76572386  0.51724117  1
  C  C444  1  0.53653202  0.72099140  0.50854935  1
  C  C445  1  0.54921753  0.71151573  0.50378124  1
  C  C446  1  0.54663767  0.85249183  0.44737062  1
  C  C447  1  0.55445758  0.86492321  0.39697231  1
  C  C448  1  0.53690635  0.86594411  0.39412507  1
  C  C449  1  0.53229025  0.87636496  0.37055941  1
  C  C450  1  0.54487081  0.88583643  0.34850571  1
  C  C451  1  0.56256833  0.88437563  0.35201767  1
  C  C452  1  0.56723947  0.87389018  0.37579168  1
  C  C453  1  0.53929553  0.89615876  0.32385024  1
  C  C454  1  0.55003545  0.90577408  0.30042919  1
  C  C455  1  0.38967977  0.48160370  0.50181160  1
  C  C456  1  0.38151686  0.48440898  0.46980764  1
  C  C457  1  0.36393442  0.47923818  0.46956930  1
  C  C458  1  0.35610541  0.47178700  0.50150299  1
  C  C459  1  0.36343385  0.48593527  0.52621579  1
  C  C460  1  0.38101403  0.49111772  0.52625205  1
  C  C461  1  0.38270740  0.46227209  0.50905882  1
  C  C462  1  0.36511054  0.45711512  0.50896750  1
  C  C463  1  0.40862802  0.48726237  0.50191528  1
  C  C464  1  0.42466177  0.49176641  0.50193427  1
  C  C465  1  0.33703686  0.46661687  0.50120960  1
  C  C466  1  0.32092640  0.46313444  0.50063205  1
  C  C467  1  0.48130692  0.38934203  0.50225866  1
  C  C468  1  0.47988081  0.38140275  0.46885786  1
  C  C469  1  0.47463579  0.36381015  0.46855427  1
  C  C470  1  0.47136601  0.35560428  0.50172309  1
  C  C471  1  0.45833527  0.36458132  0.51720366  1
  C  C472  1  0.46349560  0.38218123  0.51748629  1
  C  C473  1  0.49358335  0.38039270  0.52005340  1
  C  C474  1  0.48838718  0.36278295  0.51992060  1
  C  C475  1  0.48695577  0.40835383  0.50236059  1
  C  C476  1  0.49147380  0.42440160  0.50222468  1
  C  C477  1  0.46537167  0.33641824  0.50101049  1
  C  C478  1  0.46057576  0.32029665  0.49996846  1
  C  C479  1  0.62499333  0.52896244  0.50188510  1
  C  C480  1  0.63358250  0.51596215  0.48543596  1
  C  C481  1  0.65121661  0.52077781  0.48543601  1
  C  C482  1  0.65875609  0.53828191  0.50182079  1
  C  C483  1  0.65065363  0.53616143  0.53516802  1
  C  C484  1  0.63303466  0.53129610  0.53521373  1
  C  C485  1  0.63241785  0.54620402  0.48486771  1
  C  C486  1  0.65003904  0.55108218  0.48490748  1
  C  C487  1  0.60595603  0.52369861  0.50202294  1
  C  C488  1  0.58988690  0.51974296  0.50195365  1
  C  C489  1  0.67796403  0.54385572  0.50237521  1
  C  C490  1  0.69410664  0.54828292  0.50342432  1
  C  C491  1  0.52889133  0.62461753  0.50230968  1
  C  C492  1  0.53011966  0.63252426  0.46890839  1
  C  C493  1  0.53477823  0.65012476  0.46877930  1
  C  C494  1  0.53754240  0.65821340  0.50218748  1
  C  C495  1  0.55119990  0.64987621  0.51738082  1
  C  C496  1  0.54663552  0.63226584  0.51754882  1
  C  C497  1  0.51612361  0.63288152  0.52028709  1
  C  C498  1  0.52065516  0.65047422  0.52036178  1
  C  C499  1  0.52375341  0.60564931  0.50215734  1
  C  C500  1  0.51975655  0.58961050  0.50208306  1
  C  C501  1  0.54218097  0.67727294  0.50228509  1
  C  C502  1  0.54524712  0.69335562  0.50295591  1
  C  C503  1  0.04806671  0.48810004  0.88383045  1
  C  C504  1  0.05524371  0.48415004  0.85962189  1
  C  C505  1  0.06354429  0.47882090  0.83242664  1
  C  C506  1  0.07358571  0.49135174  0.81106714  1
  C  C507  1  0.08206110  0.48636179  0.78497941  1
  C  C508  1  0.08114611  0.46842059  0.77809058  1
  C  C509  1  0.07090808  0.45583999  0.79931066  1
  C  C510  1  0.06243268  0.46087304  0.82545114  1
  C  C511  1  0.09020110  0.46374253  0.75131280  1
  C  C512  1  0.09840297  0.46015874  0.72801520  1
  C  C513  1  0.48814726  0.04804730  0.88357362  1
  C  C514  1  0.48418951  0.05519866  0.85933178  1
  C  C515  1  0.47888717  0.06361584  0.83219835  1
  C  C516  1  0.47839193  0.05656071  0.80071569  1
  C  C517  1  0.47313226  0.06490349  0.77455310  1
  C  C518  1  0.46768847  0.08079818  0.77789114  1
  C  C519  1  0.46838100  0.08795139  0.80937113  1
  C  C520  1  0.47361679  0.07961368  0.83548289  1
  C  C521  1  0.46250715  0.08955727  0.75096287  1
  C  C522  1  0.45915793  0.09785047  0.72752478  1
  C  C523  1  0.96432715  0.51531864  0.12008388  1
  C  C524  1  0.95725497  0.51936591  0.14434537  1
  C  C525  1  0.94904752  0.52494438  0.17147135  1
  C  C526  1  0.94689391  0.51547685  0.20078700  1
  C  C527  1  0.93867518  0.52083835  0.22697943  1
  C  C528  1  0.93216735  0.53625410  0.22604961  1
  C  C529  1  0.93429754  0.54567744  0.19670276  1
  C  C530  1  0.94250631  0.54031184  0.17052487  1
  C  C531  1  0.92347692  0.54173164  0.25276567  1
  C  C532  1  0.91529795  0.54523565  0.27623041  1
  C  C533  1  0.51531230  0.96440830  0.11999911  1
  C  C534  1  0.51934432  0.95733625  0.14425193  1
  C  C535  1  0.52478192  0.94904318  0.17134059  1
  C  C536  1  0.52036077  0.95287577  0.20314512  1
  C  C537  1  0.52548475  0.94453504  0.22933392  1
  C  C538  1  0.53539143  0.93167976  0.22570452  1
  C  C539  1  0.54022142  0.92819888  0.19383381  1
  C  C540  1  0.53508119  0.93654446  0.16771279  1
  C  C541  1  0.54007376  0.92271359  0.25256551  1
  C  C542  1  0.54384013  0.91461138  0.27583698  1
  C  C543  1  0.48813150  0.04800382  0.11991307  1
  C  C544  1  0.48419022  0.05519377  0.14410718  1
  C  C545  1  0.47897225  0.06355698  0.17129405  1
  C  C546  1  0.48575232  0.08179008  0.17644927  1
  C  C547  1  0.48069115  0.09021935  0.20246969  1
  C  C548  1  0.46847269  0.08102228  0.22547659  1
  C  C549  1  0.46157149  0.06279753  0.22014391  1
  C  C550  1  0.46665696  0.05437639  0.19400794  1
  C  C551  1  0.46373661  0.08981637  0.25247488  1
  C  C552  1  0.46077108  0.09813557  0.27609865  1
  C  C553  1  0.04817584  0.48805674  0.12026642  1
  C  C554  1  0.05537323  0.48413029  0.14449836  1
  C  C555  1  0.06369836  0.47873356  0.17168461  1
  C  C556  1  0.06588319  0.46135946  0.17460571  1
  C  C557  1  0.07423320  0.45614095  0.20075389  1
  C  C558  1  0.08093834  0.46778230  0.22634199  1
  C  C559  1  0.07877445  0.48520299  0.22337784  1
  C  C560  1  0.07041537  0.49040977  0.19718455  1
  C  C561  1  0.08943057  0.46216254  0.25316127  1
  C  C562  1  0.09716410  0.45805785  0.27669733  1
  C  C563  1  0.96445679  0.51534887  0.88377426  1
  C  C564  1  0.95736953  0.51940291  0.85956049  1
  C  C565  1  0.94908239  0.52480296  0.83246285  1
  C  C566  1  0.93171125  0.52708748  0.83472288  1
  C  C567  1  0.92341745  0.53230178  0.80866784  1
  C  C568  1  0.93189820  0.53560648  0.77829587  1
  C  C569  1  0.94940633  0.53362489  0.77621453  1
  C  C570  1  0.95769130  0.52841111  0.80237423  1
  C  C571  1  0.92308961  0.54036625  0.75135785  1
  C  C572  1  0.91490906  0.54352457  0.72769238  1
  C  C573  1  0.51542611  0.96425313  0.88353594  1
  C  C574  1  0.51946011  0.95713681  0.85929973  1
  C  C575  1  0.52495543  0.94897226  0.83201919  1
  C  C576  1  0.54269571  0.95305985  0.82159511  1
  C  C577  1  0.54804162  0.94481248  0.79543496  1
  C  C578  1  0.53611612  0.93187478  0.77743527  1
  C  C579  1  0.51832231  0.92782245  0.78783834  1
  C  C580  1  0.51299429  0.93607533  0.81402994  1
  C  C581  1  0.54188557  0.92357198  0.75053512  1
  C  C582  1  0.54610992  0.91592536  0.72699915  1
  S  S583  1  0.50815750  0.50875003  0.44338242  1
  S  S584  1  0.50886954  0.50824466  0.56037081  1
  N  N585  1  0.50373910  0.47996482  0.50168024  1
  N  N586  1  0.48008381  0.50374746  0.50197783  1
  N  N587  1  0.51109530  0.53453322  0.50183522  1
  N  N588  1  0.53463635  0.51109176  0.50186351  1
  O  O589  1  0.15289975  0.44505399  0.42860129  1
  O  O590  1  0.15817317  0.44603192  0.58258187  1
  O  O591  1  0.21947733  0.46045604  0.48945168  1
  O  O592  1  0.46692156  0.15876619  0.42914379  1
  O  O593  1  0.46585260  0.16305706  0.58302543  1
  O  O594  1  0.45317538  0.21827866  0.48983670  1
  O  O595  1  0.85459083  0.53855631  0.57457814  1
  O  O596  1  0.85031489  0.53973632  0.42076982  1
  O  O597  1  0.79569931  0.55350393  0.51396211  1
  O  O598  1  0.56019018  0.86073129  0.57509929  1
  O  O599  1  0.55930228  0.85549342  0.42116146  1
  O  O600  1  0.54597323  0.79425555  0.51428041  1
