# generated using pymatgen
data_CuH292C364(N4O3)4
_symmetry_space_group_name_H-M   'P 1'
_cell_length_a   81.26449784
_cell_length_b   82.54156083
_cell_length_c   45.14828147
_cell_angle_alpha   90.02375639
_cell_angle_beta   90.16776815
_cell_angle_gamma   96.28098394
_symmetry_Int_Tables_number   1
_chemical_formula_structural   CuH292C364(N4O3)4
_chemical_formula_sum   'Cu1 H292 C364 N16 O12'
_cell_volume   301021.82905074
_cell_formula_units_Z   1
loop_
 _symmetry_equiv_pos_site_id
 _symmetry_equiv_pos_as_xyz
  1  'x, y, z'
loop_
 _atom_site_type_symbol
 _atom_site_label
 _atom_site_symmetry_multiplicity
 _atom_site_fract_x
 _atom_site_fract_y
 _atom_site_fract_z
 _atom_site_occupancy
  Cu  Cu0  1  0.50722148  0.50125628  0.50006787  1
  H  H1  1  0.96581720  0.49786180  0.95470386  1
  H  H2  1  0.01546112  0.47126333  0.94249879  1
  H  H3  1  0.01420346  0.47138926  0.98140626  1
  H  H4  1  0.00964930  0.50037149  0.94061512  1
  H  H5  1  0.00968542  0.50166139  0.97897767  1
  H  H6  1  0.98433437  0.47893117  0.94311647  1
  H  H7  1  0.98395549  0.48163671  0.98185594  1
  H  H8  1  0.99348550  0.51933987  0.98101131  1
  H  H9  1  0.97313900  0.52456907  0.97522679  1
  H  H10  1  0.03425178  0.50731928  0.98707827  1
  H  H11  1  0.05299764  0.49860758  0.99038058  1
  H  H12  1  0.03345476  0.50373682  0.93130093  1
  H  H13  1  0.05309701  0.50246870  0.94646004  1
  H  H14  1  0.98898433  0.50110588  0.91386935  1
  H  H15  1  0.99243361  0.52041701  0.93188055  1
  H  H16  1  0.04847917  0.50448564  0.04552412  1
  H  H17  1  -0.00105933  0.53102843  0.05765623  1
  H  H18  1  0.00014346  0.53086484  0.01877524  1
  H  H19  1  0.00466248  0.50189984  0.05966450  1
  H  H20  1  0.00461629  0.50057406  0.02128687  1
  H  H21  1  0.02992552  0.52337728  0.05709181  1
  H  H22  1  0.03031456  0.52061924  0.01836533  1
  H  H23  1  0.02087463  0.48291364  0.01929204  1
  H  H24  1  0.04125855  0.47777345  0.02513189  1
  H  H25  1  0.98004910  0.49496390  0.01314695  1
  H  H26  1  0.96132661  0.50371359  0.00983537  1
  H  H27  1  0.98079494  0.49836827  0.06861458  1
  H  H28  1  0.96121556  0.49984670  0.05343898  1
  H  H29  1  0.02575091  0.50138265  0.08679148  1
  H  H30  1  0.02180565  0.48207693  0.06884022  1
  H  H31  1  0.47903503  0.96827600  0.04289937  1
  H  H32  1  0.49025323  0.02635818  0.05826794  1
  H  H33  1  0.48958813  0.02557032  0.01934322  1
  H  H34  1  0.50790159  0.00332876  0.05944222  1
  H  H35  1  0.50904681  0.00308481  0.02114456  1
  H  H36  1  0.47655421  0.99545462  0.05606288  1
  H  H37  1  0.47854850  0.99363043  0.01734585  1
  H  H38  1  0.51237150  0.97862602  0.01946587  1
  H  H39  1  0.50394573  0.95814867  0.02543295  1
  H  H40  1  0.52844179  0.02055387  0.01334044  1
  H  H41  1  0.53311209  0.04184806  0.01070802  1
  H  H42  1  0.52367790  0.02034899  0.07095821  1
  H  H43  1  0.53670874  0.03628824  0.05453721  1
  H  H44  1  0.49480847  0.98556457  0.08620334  1
  H  H45  1  0.51118632  0.97597443  0.07021669  1
  H  H46  1  0.53519462  0.03430529  0.95705276  1
  H  H47  1  0.52398827  0.97599439  0.94201409  1
  H  H48  1  0.52474175  0.97679477  0.98094786  1
  H  H49  1  0.50632564  0.99896539  0.94093824  1
  H  H50  1  0.50520466  0.99924157  0.97922386  1
  H  H51  1  0.53768540  0.00711816  0.94430448  1
  H  H52  1  0.53572808  0.00879875  0.98304585  1
  H  H53  1  0.50206221  0.02369656  0.98134003  1
  H  H54  1  0.51026705  0.04424763  0.97568659  1
  H  H55  1  0.48591972  0.98168363  0.98724819  1
  H  H56  1  0.48135361  0.96038810  0.99018028  1
  H  H57  1  0.48952629  0.98167725  0.93100853  1
  H  H58  1  0.47752775  0.96482315  0.94671538  1
  H  H59  1  0.51829437  0.01626879  0.91555745  1
  H  H60  1  0.50283031  0.02709241  0.93113048  1
  H  H61  1  0.50015049  0.47476069  0.45914612  1
  H  H62  1  0.53484297  0.45751299  0.53837500  1
  H  H63  1  0.54119848  0.51145405  0.52653325  1
  H  H64  1  0.56957107  0.51902792  0.44643963  1
  H  H65  1  0.54273811  0.51262664  0.41866065  1
  H  H66  1  0.51404965  0.52781166  0.54084471  1
  H  H67  1  0.47342607  0.49086744  0.47365286  1
  H  H68  1  0.50726644  0.55696608  0.54114210  1
  H  H69  1  0.47172483  0.48956592  0.58153707  1
  H  H70  1  0.47935653  0.54489324  0.46155879  1
  H  H71  1  0.44493800  0.48319756  0.55355474  1
  H  H72  1  0.50687126  0.44552881  0.45880926  1
  H  H73  1  0.15078141  0.44698648  0.32284489  1
  H  H74  1  0.13867791  0.41022220  0.32819546  1
  H  H75  1  0.15097637  0.39671491  0.36946774  1
  H  H76  1  0.16976979  0.39697558  0.41205059  1
  H  H77  1  0.18431960  0.44826433  0.39916548  1
  H  H78  1  0.16586066  0.44835492  0.35628943  1
  H  H79  1  0.19225984  0.39902291  0.43855602  1
  H  H80  1  0.17481103  0.40549171  0.45690322  1
  H  H81  1  0.16877221  0.42940060  0.52001708  1
  H  H82  1  0.16609883  0.40978838  0.50422098  1
  H  H83  1  0.16842382  0.42729996  0.48121220  1
  H  H84  1  0.21542183  0.40565413  0.42918169  1
  H  H85  1  0.22513708  0.39309758  0.45404603  1
  H  H86  1  0.23528549  0.41215970  0.44268078  1
  H  H87  1  0.22442483  0.44079966  0.56467353  1
  H  H88  1  0.23988109  0.44468810  0.53718097  1
  H  H89  1  0.23788403  0.42608894  0.55687716  1
  H  H90  1  0.24957567  0.41719844  0.51781653  1
  H  H91  1  0.24769811  0.41219052  0.47945685  1
  H  H92  1  0.27112602  0.41345550  0.49510475  1
  H  H93  1  0.30112311  0.41808916  0.49861436  1
  H  H94  1  0.29918535  0.46977422  0.48480569  1
  H  H95  1  0.26843049  0.46505198  0.48217950  1
  H  H96  1  0.32554888  0.46004377  0.49111472  1
  H  H97  1  0.32752032  0.42295217  0.50132471  1
  H  H98  1  0.20275979  0.44736056  0.55715261  1
  H  H99  1  0.18239307  0.44007000  0.54634590  1
  H  H100  1  0.18549781  0.45473662  0.58530017  1
  H  H101  1  0.16604557  0.46165826  0.62334578  1
  H  H102  1  0.16079387  0.41158680  0.65365892  1
  H  H103  1  0.17993863  0.40466966  0.61437178  1
  H  H104  1  0.14900219  0.45537306  0.66341024  1
  H  H105  1  0.14427029  0.41978906  0.68628922  1
  H  H106  1  0.56209116  0.15459195  0.32254629  1
  H  H107  1  0.59934991  0.15041643  0.32972578  1
  H  H108  1  0.61314385  0.16539550  0.37050617  1
  H  H109  1  0.61307412  0.18389434  0.41296539  1
  H  H110  1  0.56101236  0.18734380  0.39985202  1
  H  H111  1  0.56077280  0.16898541  0.35707392  1
  H  H112  1  0.61110321  0.20573530  0.43944313  1
  H  H113  1  0.60447382  0.18717021  0.45784241  1
  H  H114  1  0.58022569  0.17601227  0.52078594  1
  H  H115  1  0.60014632  0.17765306  0.50513768  1
  H  H116  1  0.58237051  0.17615561  0.48200375  1
  H  H117  1  0.60434931  0.22715641  0.42999578  1
  H  H118  1  0.61711287  0.23942189  0.45495169  1
  H  H119  1  0.59777777  0.24531141  0.44339606  1
  H  H120  1  0.56873382  0.22835737  0.56527284  1
  H  H121  1  0.56481965  0.24276673  0.53773470  1
  H  H122  1  0.58371857  0.24478543  0.55751652  1
  H  H123  1  0.59270276  0.25824625  0.51852319  1
  H  H124  1  0.59775251  0.25757807  0.48018360  1
  H  H125  1  0.59649233  0.28045293  0.49594073  1
  H  H126  1  0.59186263  0.30900606  0.49937974  1
  H  H127  1  0.53936765  0.29594712  0.48517050  1
  H  H128  1  0.54408659  0.26669337  0.48260279  1
  H  H129  1  0.54925827  0.32401208  0.49150223  1
  H  H130  1  0.58692049  0.33401306  0.50198072  1
  H  H131  1  0.56208692  0.20561214  0.55772167  1
  H  H132  1  0.56946324  0.18713725  0.54704059  1
  H  H133  1  0.55451401  0.18710130  0.58576055  1
  H  H134  1  0.54735327  0.16625778  0.62354402  1
  H  H135  1  0.59817919  0.17170320  0.65432985  1
  H  H136  1  0.60532754  0.19225486  0.61541032  1
  H  H137  1  0.55384344  0.15018104  0.66353375  1
  H  H138  1  0.58966193  0.15518318  0.68826324  1
  H  H139  1  0.86770735  0.57885865  0.68322515  1
  H  H140  1  0.86759239  0.54213523  0.66903606  1
  H  H141  1  0.85461891  0.53095805  0.62849607  1
  H  H142  1  0.83573190  0.53152799  0.58626585  1
  H  H143  1  0.83292237  0.58290374  0.60063036  1
  H  H144  1  0.85178316  0.58241703  0.64371315  1
  H  H145  1  0.81419515  0.53359320  0.56114850  1
  H  H146  1  0.83303831  0.54011552  0.54275636  1
  H  H147  1  0.84448458  0.56375906  0.47986087  1
  H  H148  1  0.84277639  0.54415644  0.49564490  1
  H  H149  1  0.84429058  0.56167428  0.51864471  1
  H  H150  1  0.79261649  0.54006395  0.57056084  1
  H  H151  1  0.78019337  0.52747024  0.54565947  1
  H  H152  1  0.77410839  0.54644355  0.55726799  1
  H  H153  1  0.79131595  0.57525202  0.43521968  1
  H  H154  1  0.77664334  0.57911194  0.46266100  1
  H  H155  1  0.77465399  0.56047001  0.44304116  1
  H  H156  1  0.76098310  0.55184328  0.48224081  1
  H  H157  1  0.76171208  0.54711938  0.52073441  1
  H  H158  1  0.73886522  0.54769330  0.50477027  1
  H  H159  1  0.70996735  0.55069581  0.50146758  1
  H  H160  1  0.72071758  0.60299034  0.51492981  1
  H  H161  1  0.75056732  0.59952847  0.51764464  1
  H  H162  1  0.69017329  0.58994798  0.50867337  1
  H  H163  1  0.68883784  0.55271381  0.49677383  1
  H  H164  1  0.81452176  0.58206979  0.44305532  1
  H  H165  1  0.83323623  0.57467414  0.45380884  1
  H  H166  1  0.83370792  0.58954391  0.41450477  1
  H  H167  1  0.85462699  0.59631666  0.37631374  1
  H  H168  1  0.84835638  0.54568902  0.34738070  1
  H  H169  1  0.82783038  0.53941317  0.38598794  1
  H  H170  1  0.87137291  0.58832538  0.33350100  1
  H  H171  1  0.86190363  0.55213780  0.31730342  1
  H  H172  1  0.42818639  0.84630054  0.68216632  1
  H  H173  1  0.46489740  0.85677332  0.66650455  1
  H  H174  1  0.47686100  0.84427886  0.62773272  1
  H  H175  1  0.47603533  0.82541180  0.58571709  1
  H  H176  1  0.42386642  0.81177769  0.60032273  1
  H  H177  1  0.42461400  0.83056729  0.64310989  1
  H  H178  1  0.47373908  0.80369931  0.56072685  1
  H  H179  1  0.46717194  0.82084874  0.54218075  1
  H  H180  1  0.44316658  0.82703581  0.47913337  1
  H  H181  1  0.46306755  0.82958287  0.49506604  1
  H  H182  1  0.44526436  0.82729408  0.51793073  1
  H  H183  1  0.46717958  0.78099139  0.57012709  1
  H  H184  1  0.47992726  0.77150839  0.54527738  1
  H  H185  1  0.46065369  0.76139646  0.55679379  1
  H  H186  1  0.43150171  0.77222779  0.43449709  1
  H  H187  1  0.42755929  0.75690405  0.46193175  1
  H  H188  1  0.44650503  0.75903489  0.44247877  1
  H  H189  1  0.45528669  0.74739967  0.48173671  1
  H  H190  1  0.46005251  0.74909843  0.52025825  1
  H  H191  1  0.45951312  0.72640689  0.50424051  1
  H  H192  1  0.45643052  0.69728756  0.50094060  1
  H  H193  1  0.40333201  0.69649210  0.51404504  1
  H  H194  1  0.40688610  0.72663116  0.51675017  1
  H  H195  1  0.41654453  0.66924508  0.50782830  1
  H  H196  1  0.45438920  0.67594349  0.49635074  1
  H  H197  1  0.42454384  0.79364201  0.44223497  1
  H  H198  1  0.43212317  0.81364592  0.45304887  1
  H  H199  1  0.41701890  0.81104832  0.41364642  1
  H  H200  1  0.41024465  0.83020985  0.37530733  1
  H  H201  1  0.46163759  0.83496692  0.34679271  1
  H  H202  1  0.46793660  0.81597701  0.38546209  1
  H  H203  1  0.41844424  0.84834033  0.33233871  1
  H  H204  1  0.45507468  0.84655998  0.31566731  1
  H  H205  1  0.39115179  0.44212753  0.45824121  1
  H  H206  1  0.39969510  0.47602995  0.45373515  1
  H  H207  1  0.41457939  0.44050843  0.50368338  1
  H  H208  1  0.39074781  0.44599000  0.54623558  1
  H  H209  1  0.37584582  0.48147842  0.49645466  1
  H  H210  1  0.39928654  0.47974386  0.54162271  1
  H  H211  1  0.53461373  0.37327561  0.53513024  1
  H  H212  1  0.55013437  0.40434048  0.54964322  1
  H  H213  1  0.51972330  0.38619689  0.48555505  1
  H  H214  1  0.54705597  0.38083048  0.45042782  1
  H  H215  1  0.57752921  0.39898741  0.51456845  1
  H  H216  1  0.56253496  0.41187611  0.46505497  1
  H  H217  1  0.62470651  0.55524921  0.45341110  1
  H  H218  1  0.61639339  0.52168358  0.46112042  1
  H  H219  1  0.60014065  0.56173900  0.49382573  1
  H  H220  1  0.62284345  0.56169936  0.54084836  1
  H  H221  1  0.63910161  0.52149010  0.50774980  1
  H  H222  1  0.61452798  0.52793506  0.54825662  1
  H  H223  1  0.47870278  0.62893632  0.53581500  1
  H  H224  1  0.46324447  0.59762588  0.54822341  1
  H  H225  1  0.49430203  0.61681797  0.48652817  1
  H  H226  1  0.46746034  0.62249984  0.45029355  1
  H  H227  1  0.43622945  0.60323463  0.51210641  1
  H  H228  1  0.45201716  0.59120785  0.46278850  1
  H  H229  1  0.05903061  0.45062959  0.88322590  1
  H  H230  1  0.06978312  0.49970342  0.85062158  1
  H  H231  1  0.05250795  0.50942767  0.89016891  1
  H  H232  1  0.04244788  0.46052248  0.92357284  1
  H  H233  1  0.11828474  0.47279985  0.73759777  1
  H  H234  1  0.13533959  0.46417653  0.69751156  1
  H  H235  1  0.12621834  0.41436755  0.72778538  1
  H  H236  1  0.10908291  0.42322181  0.76810693  1
  H  H237  1  0.53624694  0.08210572  0.90139943  1
  H  H238  1  0.52955333  0.04536009  0.83319163  1
  H  H239  1  0.51879195  0.02524387  0.87048663  1
  H  H240  1  0.52654916  0.06182845  0.93884007  1
  H  H241  1  0.55771056  0.09785328  0.72186519  1
  H  H242  1  0.56686975  0.11671733  0.68168264  1
  H  H243  1  0.57490088  0.15598182  0.74487889  1
  H  H244  1  0.56496346  0.13721629  0.78478823  1
  H  H245  1  0.95938923  0.55165622  0.12205271  1
  H  H246  1  0.94117982  0.50232678  0.14547339  1
  H  H247  1  0.95837363  0.49222411  0.10609594  1
  H  H248  1  0.97546902  0.54152537  0.08119632  1
  H  H249  1  0.89335166  0.52916997  0.25473731  1
  H  H250  1  0.87585249  0.53630433  0.29552632  1
  H  H251  1  0.89121681  0.58739788  0.28081052  1
  H  H252  1  0.90906575  0.58001762  0.24034197  1
  H  H253  1  0.50628684  0.93872908  0.14892674  1
  H  H254  1  0.45651393  0.93750871  0.11494873  1
  H  H255  1  0.46592345  0.95701616  0.07667045  1
  H  H256  1  0.51613121  0.95787325  0.10950420  1
  H  H257  1  0.42717719  0.88317399  0.23286106  1
  H  H258  1  0.41929481  0.86438689  0.27386159  1
  H  H259  1  0.47032743  0.86821812  0.30200183  1
  H  H260  1  0.47816995  0.88644817  0.26031589  1
  H  H261  1  0.52505582  0.04441275  0.16467465  1
  H  H262  1  0.53993835  0.08319118  0.10331290  1
  H  H263  1  0.52885048  0.06560558  0.06197336  1
  H  H264  1  0.51564132  0.02646516  0.12314473  1
  H  H265  1  0.56933482  0.13638385  0.21695437  1
  H  H266  1  0.57894673  0.15490058  0.25737815  1
  H  H267  1  0.56343951  0.11734057  0.32077844  1
  H  H268  1  0.55392420  0.09884566  0.28021050  1
  H  H269  1  0.06316516  0.45225479  0.11118945  1
  H  H270  1  0.06700081  0.49919443  0.15413238  1
  H  H271  1  0.05044501  0.50958490  0.11409414  1
  H  H272  1  0.04570931  0.46235803  0.07244401  1
  H  H273  1  0.11453799  0.47154921  0.26648822  1
  H  H274  1  0.13174398  0.46306949  0.30716301  1
  H  H275  1  0.12920999  0.41474286  0.27000812  1
  H  H276  1  0.11216379  0.42334620  0.22929056  1
  H  H277  1  0.95208488  0.50520760  0.84049643  1
  H  H278  1  0.94658911  0.54739436  0.89442186  1
  H  H279  1  0.96425254  0.53721774  0.93269162  1
  H  H280  1  0.96866030  0.49432433  0.88004925  1
  H  H281  1  0.89687340  0.57611007  0.77679616  1
  H  H282  1  0.87958307  0.58420072  0.73573692  1
  H  H283  1  0.89031934  0.54165858  0.68669020  1
  H  H284  1  0.90579654  0.53272961  0.72892157  1
  H  H285  1  0.48161492  0.95940811  0.83767945  1
  H  H286  1  0.48147096  0.91799014  0.89574056  1
  H  H287  1  0.49260430  0.93616178  0.93615504  1
  H  H288  1  0.49194751  0.97754997  0.87830868  1
  H  H289  1  0.45263401  0.86456929  0.78251212  1
  H  H290  1  0.44328378  0.84579815  0.74216296  1
  H  H291  1  0.44345805  0.88650079  0.68226346  1
  H  H292  1  0.45210096  0.90528861  0.72299674  1
  C  C293  1  0.01753014  0.47923538  0.96204941  1
  C  C294  1  0.00648136  0.49317004  0.96064116  1
  C  C295  1  0.98793216  0.48766571  0.96099796  1
  C  C296  1  0.98035811  0.51453379  0.98098605  1
  C  C297  1  0.03944785  0.49557835  0.99007440  1
  C  C298  1  0.04188550  0.49472219  0.93832751  1
  C  C299  1  0.98301708  0.51019274  0.92657916  1
  C  C300  1  0.99681306  0.52303227  0.03814830  1
  C  C301  1  0.00781961  0.50907829  0.03960707  1
  C  C302  1  0.02634904  0.51461060  0.03925187  1
  C  C303  1  0.03399088  0.48776382  0.01932218  1
  C  C304  1  0.97487972  0.50672280  0.01017254  1
  C  C305  1  0.97243614  0.50749679  0.06178259  1
  C  C306  1  0.03143405  0.49215306  0.07387115  1
  C  C307  1  0.49738115  0.02332145  0.03868341  1
  C  C308  1  0.50075309  0.00540301  0.03940347  1
  C  C309  1  0.48530066  0.99319122  0.03837651  1
  C  C310  1  0.50087708  0.97031335  0.01913989  1
  C  C311  1  0.52273912  0.03205087  0.01089196  1
  C  C312  1  0.52394806  0.03304525  0.06313888  1
  C  C313  1  0.49769646  0.97478617  0.07356480  1
  C  C314  1  0.51690575  0.97902978  0.96165776  1
  C  C315  1  0.51352135  0.99698066  0.96096663  1
  C  C316  1  0.52896000  0.00930587  0.96205549  1
  C  C317  1  0.51349807  0.03210254  0.98169622  1
  C  C318  1  0.49168931  0.97022934  0.98985763  1
  C  C319  1  0.49010150  0.96892703  0.93794681  1
  C  C320  1  0.51625554  0.02756485  0.92723085  1
  C  C321  1  0.50665555  0.53253883  0.52336341  1
  C  C322  1  0.50266997  0.54845543  0.52373770  1
  C  C323  1  0.49244227  0.55305265  0.50113706  1
  C  C324  1  0.48737507  0.54136027  0.47932023  1
  C  C325  1  0.47251943  0.49051468  0.49769976  1
  C  C326  1  0.45714787  0.48629266  0.51126956  1
  C  C327  1  0.45670764  0.48620913  0.54214795  1
  C  C328  1  0.47143981  0.48983371  0.55742291  1
  C  C329  1  0.50752297  0.46999343  0.47660228  1
  C  C330  1  0.51143297  0.45407187  0.47619476  1
  C  C331  1  0.52163738  0.44951438  0.49881222  1
  C  C332  1  0.52681003  0.46111497  0.52069648  1
  C  C333  1  0.54212053  0.51183748  0.50248735  1
  C  C334  1  0.55750470  0.51610227  0.48884658  1
  C  C335  1  0.55783275  0.51606192  0.45796440  1
  C  C336  1  0.54306666  0.51239686  0.44277785  1
  C  C337  1  0.14345285  0.43556953  0.31678646  1
  C  C338  1  0.14560229  0.42200129  0.33305939  1
  C  C339  1  0.15669713  0.42237595  0.35859572  1
  C  C340  1  0.15822995  0.40813632  0.37554175  1
  C  C341  1  0.16870899  0.40824585  0.39993724  1
  C  C342  1  0.17803247  0.42273651  0.40842519  1
  C  C343  1  0.17695820  0.43701706  0.39232407  1
  C  C344  1  0.16643348  0.43688762  0.36797646  1
  C  C345  1  0.18781521  0.40915445  0.45098974  1
  C  C346  1  0.19843260  0.41407670  0.47726773  1
  C  C347  1  0.21569397  0.41367664  0.47509668  1
  C  C348  1  0.22576868  0.42031649  0.49851622  1
  C  C349  1  0.21905704  0.42784960  0.52314110  1
  C  C350  1  0.20179812  0.42848924  0.52415370  1
  C  C351  1  0.19126476  0.42153496  0.50156292  1
  C  C352  1  0.17282484  0.42205975  0.50182440  1
  C  C353  1  0.22321203  0.40584627  0.44906357  1
  C  C354  1  0.23075528  0.43522904  0.54656951  1
  C  C355  1  0.24410059  0.42054396  0.49659448  1
  C  C356  1  0.26793371  0.43912799  0.48929690  1
  C  C357  1  0.27711405  0.42589328  0.49336030  1
  C  C358  1  0.29418835  0.42849931  0.49497316  1
  C  C359  1  0.30260007  0.44439239  0.49206959  1
  C  C360  1  0.29289613  0.45750140  0.48721306  1
  C  C361  1  0.27578964  0.45492798  0.48574821  1
  C  C362  1  0.32025561  0.44741239  0.49375505  1
  C  C363  1  0.33128292  0.43597616  0.49841216  1
  C  C364  1  0.19475490  0.43633350  0.55035068  1
  C  C365  1  0.18344958  0.42908804  0.59699633  1
  C  C366  1  0.17980247  0.44519095  0.59982618  1
  C  C367  1  0.16904360  0.44913426  0.62170402  1
  C  C368  1  0.16186053  0.43736985  0.64200595  1
  C  C369  1  0.16608953  0.42117733  0.63883946  1
  C  C370  1  0.17689855  0.41715692  0.61682247  1
  C  C371  1  0.15083438  0.44250564  0.66468387  1
  C  C372  1  0.14297490  0.43280239  0.68595761  1
  C  C373  1  0.57379000  0.14965777  0.31756922  1
  C  C374  1  0.58732818  0.15455202  0.33444815  1
  C  C375  1  0.58705807  0.16551261  0.35973233  1
  C  C376  1  0.60158712  0.17009164  0.37658913  1
  C  C377  1  0.60158785  0.18043633  0.40086835  1
  C  C378  1  0.58692538  0.18655432  0.40924000  1
  C  C379  1  0.57237853  0.18245711  0.39310937  1
  C  C380  1  0.57240334  0.17206003  0.36888435  1
  C  C381  1  0.60078435  0.19918372  0.45182478  1
  C  C382  1  0.59578857  0.20858473  0.47802355  1
  C  C383  1  0.59617668  0.22567598  0.47582291  1
  C  C384  1  0.58943082  0.23416990  0.49913638  1
  C  C385  1  0.58184885  0.22589877  0.52378487  1
  C  C386  1  0.58122180  0.20876435  0.52484569  1
  C  C387  1  0.58824632  0.19989512  0.50232486  1
  C  C388  1  0.58769269  0.18161856  0.50264289  1
  C  C389  1  0.60415897  0.23478222  0.44984248  1
  C  C390  1  0.57440200  0.23580206  0.54717778  1
  C  C391  1  0.58925152  0.25220049  0.49725573  1
  C  C392  1  0.57042979  0.27176253  0.48993782  1
  C  C393  1  0.58387571  0.28367321  0.49410509  1
  C  C394  1  0.58126457  0.29993589  0.49566201  1
  C  C395  1  0.56514598  0.30480230  0.49261861  1
  C  C396  1  0.55182104  0.29240585  0.48768924  1
  C  C397  1  0.55439953  0.27611172  0.48626493  1
  C  C398  1  0.56208639  0.32154424  0.49420467  1
  C  C399  1  0.57371118  0.33490328  0.49877681  1
  C  C400  1  0.57327239  0.20011960  0.55102806  1
  C  C401  1  0.58055871  0.19051810  0.59771262  1
  C  C402  1  0.56417145  0.18345699  0.60032141  1
  C  C403  1  0.56010165  0.17187096  0.62197581  1
  C  C404  1  0.57202129  0.16718928  0.64224047  1
  C  C405  1  0.58846902  0.17492062  0.63945557  1
  C  C406  1  0.59262144  0.18656577  0.61764991  1
  C  C407  1  0.56691598  0.15490935  0.66448916  1
  C  C408  1  0.57669439  0.15000469  0.68648076  1
  C  C409  1  0.87121239  0.56649044  0.68481605  1
  C  C410  1  0.86528419  0.55471311  0.66510575  1
  C  C411  1  0.85459220  0.55648191  0.63981083  1
  C  C412  1  0.84990343  0.54239383  0.62255925  1
  C  C413  1  0.83941864  0.54273281  0.59849840  1
  C  C414  1  0.83341338  0.55738731  0.59076795  1
  C  C415  1  0.83778426  0.57161193  0.60712646  1
  C  C416  1  0.84835457  0.57122230  0.63131329  1
  C  C417  1  0.82079518  0.54369402  0.54854006  1
  C  C418  1  0.81127476  0.54843265  0.52224988  1
  C  C419  1  0.79395353  0.54821162  0.52469705  1
  C  C420  1  0.78536115  0.55518057  0.50163757  1
  C  C421  1  0.79380875  0.56244059  0.47684628  1
  C  C422  1  0.81121209  0.56302543  0.47572773  1
  C  C423  1  0.82018377  0.55593109  0.49812730  1
  C  C424  1  0.83875234  0.55642367  0.49799847  1
  C  C425  1  0.78482492  0.54024614  0.55072700  1
  C  C426  1  0.78374849  0.56969739  0.45331707  1
  C  C427  1  0.76705090  0.55545595  0.50349308  1
  C  C428  1  0.74671532  0.57352430  0.51044539  1
  C  C429  1  0.73510150  0.55993636  0.50646882  1
  C  C430  1  0.71838570  0.56174994  0.50495646  1
  C  C431  1  0.71246430  0.57718012  0.50785244  1
  C  C432  1  0.72461928  0.59082701  0.51252082  1
  C  C433  1  0.74142824  0.58899924  0.51395002  1
  C  C434  1  0.69483770  0.57811992  0.50640878  1
  C  C435  1  0.68389491  0.56426993  0.50167767  1
  C  C436  1  0.82003808  0.57100269  0.44969832  1
  C  C437  1  0.82982712  0.56388749  0.40303488  1
  C  C438  1  0.83721672  0.57993876  0.40001099  1
  C  C439  1  0.84887625  0.58377442  0.37799393  1
  C  C440  1  0.85343622  0.57185118  0.35782818  1
  C  C441  1  0.84543206  0.55570646  0.36145470  1
  C  C442  1  0.83368009  0.55188819  0.38339164  1
  C  C443  1  0.86570778  0.57574664  0.33464964  1
  C  C444  1  0.86935823  0.56391292  0.31522500  1
  C  C445  1  0.44056771  0.85296335  0.68349206  1
  C  C446  1  0.45248262  0.85044780  0.66353812  1
  C  C447  1  0.45092599  0.83905150  0.63890033  1
  C  C448  1  0.46517566  0.83724788  0.62181333  1
  C  C449  1  0.46470625  0.82670852  0.59793583  1
  C  C450  1  0.44976484  0.81765476  0.59027097  1
  C  C451  1  0.43540756  0.81896789  0.60669906  1
  C  C452  1  0.43594393  0.82956786  0.63071658  1
  C  C453  1  0.46348099  0.80803539  0.54809030  1
  C  C454  1  0.45859244  0.79761793  0.52183339  1
  C  C455  1  0.45886265  0.78060766  0.52424236  1
  C  C456  1  0.45182336  0.77065040  0.50110331  1
  C  C457  1  0.44447696  0.77742607  0.47623661  1
  C  C458  1  0.44388171  0.79443795  0.47508305  1
  C  C459  1  0.45104640  0.80478767  0.49757572  1
  C  C460  1  0.45059234  0.82297019  0.49735647  1
  C  C461  1  0.46696393  0.77330661  0.55029325  1
  C  C462  1  0.43712692  0.76596562  0.45264971  1
  C  C463  1  0.45158759  0.75255137  0.50294737  1
  C  C464  1  0.43328271  0.72850968  0.50973544  1
  C  C465  1  0.44707231  0.72003561  0.50586311  1
  C  C466  1  0.44521535  0.70317461  0.50434823  1
  C  C467  1  0.42954733  0.69396409  0.50712736  1
  C  C468  1  0.41569851  0.70296735  0.51170492  1
  C  C469  1  0.41756767  0.71991942  0.51313652  1
  C  C470  1  0.42858024  0.67638782  0.50564757  1
  C  C471  1  0.44260913  0.66857857  0.50102492  1
  C  C472  1  0.43581113  0.80144335  0.44896641  1
  C  C473  1  0.44307293  0.81269455  0.40233102  1
  C  C474  1  0.42679859  0.81654996  0.39919073  1
  C  C475  1  0.42295121  0.82719177  0.37706248  1
  C  C476  1  0.43507580  0.83415651  0.35686249  1
  C  C477  1  0.45145888  0.82982088  0.36072950  1
  C  C478  1  0.45528800  0.81906596  0.38275183  1
  C  C479  1  0.43115090  0.84528685  0.33343937  1
  C  C480  1  0.44307677  0.85130456  0.31381046  1
  C  C481  1  0.39287098  0.45048734  0.47678493  1
  C  C482  1  0.39765871  0.46928605  0.47421752  1
  C  C483  1  0.41114052  0.46857740  0.49912385  1
  C  C484  1  0.40597267  0.44960551  0.50191944  1
  C  C485  1  0.37923809  0.45330124  0.50054050  1
  C  C486  1  0.39264931  0.45262536  0.52560392  1
  C  C487  1  0.38444033  0.47235199  0.49796928  1
  C  C488  1  0.39758689  0.47143778  0.52300065  1
  C  C489  1  0.42754942  0.47597447  0.49674623  1
  C  C490  1  0.44211264  0.48187465  0.49472889  1
  C  C491  1  0.36285707  0.44596026  0.50042655  1
  C  C492  1  0.34810011  0.44089057  0.49961275  1
  C  C493  1  0.54086798  0.38180929  0.51953827  1
  C  C494  1  0.54946770  0.39909242  0.52761325  1
  C  C495  1  0.54096940  0.40660165  0.50015523  1
  C  C496  1  0.53256735  0.38904482  0.49202805  1
  C  C497  1  0.55633889  0.37845494  0.50005964  1
  C  C498  1  0.54777581  0.38599572  0.47252321  1
  C  C499  1  0.56470061  0.39601385  0.50811881  1
  C  C500  1  0.55636024  0.40327976  0.48062940  1
  C  C501  1  0.53347787  0.42106148  0.50034265  1
  C  C502  1  0.52757930  0.43406475  0.50020905  1
  C  C503  1  0.56370590  0.36387953  0.49998822  1
  C  C504  1  0.56876496  0.35041502  0.49952536  1
  C  C505  1  0.62260189  0.54928859  0.47465229  1
  C  C506  1  0.61776541  0.53055969  0.47889617  1
  C  C507  1  0.60374179  0.53393208  0.50150255  1
  C  C508  1  0.60882816  0.55282818  0.49707042  1
  C  C509  1  0.63563617  0.54956237  0.50063271  1
  C  C510  1  0.62154312  0.55283200  0.52306486  1
  C  C511  1  0.63055817  0.53056573  0.50476553  1
  C  C512  1  0.61684450  0.53410076  0.52726005  1
  C  C513  1  0.58725791  0.52653925  0.50335956  1
  C  C514  1  0.57264852  0.52066137  0.50501588  1
  C  C515  1  0.65197744  0.55746519  0.50129190  1
  C  C516  1  0.66661281  0.56317617  0.50202228  1
  C  C517  1  0.47263437  0.62063492  0.51957328  1
  C  C518  1  0.46412469  0.60318644  0.52646802  1
  C  C519  1  0.47305878  0.59608695  0.49906333  1
  C  C520  1  0.48137987  0.61381925  0.49220885  1
  C  C521  1  0.45733870  0.62417172  0.49957624  1
  C  C522  1  0.46637720  0.61711824  0.47217934  1
  C  C523  1  0.44911631  0.60642808  0.50641991  1
  C  C524  1  0.45789715  0.59962499  0.47903539  1
  C  C525  1  0.48057903  0.58156062  0.49910763  1
  C  C526  1  0.48646052  0.56852513  0.49956132  1
  C  C527  1  0.44937507  0.63857553  0.50044174  1
  C  C528  1  0.44365650  0.65177878  0.50123811  1
  C  C529  1  0.05770306  0.46360959  0.88492483  1
  C  C530  1  0.06599312  0.47430624  0.86364025  1
  C  C531  1  0.06357003  0.49101284  0.86625921  1
  C  C532  1  0.05410432  0.49650845  0.88879933  1
  C  C533  1  0.04737372  0.48601313  0.91115656  1
  C  C534  1  0.04853627  0.46921868  0.90789849  1
  C  C535  1  0.07591510  0.46881657  0.84101573  1
  C  C536  1  0.08451181  0.46404268  0.82112613  1
  C  C537  1  0.09387181  0.45884093  0.79945639  1
  C  C538  1  0.10246212  0.45406301  0.77955172  1
  C  C539  1  0.11223503  0.44882701  0.75651352  1
  C  C540  1  0.12008058  0.45994209  0.73544328  1
  C  C541  1  0.12975410  0.45498938  0.71281796  1
  C  C542  1  0.13255678  0.43838125  0.70920478  1
  C  C543  1  0.12459689  0.42724200  0.72993992  1
  C  C544  1  0.11491458  0.43219428  0.75257817  1
  C  C545  1  0.53272378  0.06950038  0.89466774  1
  C  C546  1  0.53389396  0.06544656  0.86416788  1
  C  C547  1  0.52880281  0.04899564  0.85634842  1
  C  C548  1  0.52303456  0.03765619  0.87728731  1
  C  C549  1  0.52275914  0.04157755  0.90745982  1
  C  C550  1  0.52735998  0.05795480  0.91583971  1
  C  C551  1  0.53959380  0.07667804  0.84207990  1
  C  C552  1  0.54450280  0.08594909  0.82190951  1
  C  C553  1  0.54984366  0.09601154  0.79987231  1
  C  C554  1  0.55474914  0.10524982  0.77963408  1
  C  C555  1  0.56027422  0.11595967  0.75668417  1
  C  C556  1  0.56116309  0.11072364  0.72673908  1
  C  C557  1  0.56616934  0.12140197  0.70416218  1
  C  C558  1  0.57108253  0.13812910  0.70977364  1
  C  C559  1  0.57098896  0.14324397  0.73968409  1
  C  C560  1  0.56543211  0.13274258  0.76210791  1
  C  C561  1  0.95893038  0.53856715  0.11813603  1
  C  C562  1  0.94868623  0.52789224  0.13690726  1
  C  C563  1  0.94895137  0.51096258  0.13181505  1
  C  C564  1  0.95834262  0.50530907  0.10934696  1
  C  C565  1  0.96689411  0.51600980  0.08914981  1
  C  C566  1  0.96784076  0.53285602  0.09490314  1
  C  C567  1  0.93891435  0.53352189  0.15960917  1
  C  C568  1  0.93042989  0.53855789  0.17940216  1
  C  C569  1  0.92118858  0.54404597  0.20098471  1
  C  C570  1  0.91271047  0.54906477  0.22080542  1
  C  C571  1  0.90277229  0.55397924  0.24396279  1
  C  C572  1  0.89294746  0.54195551  0.26056876  1
  C  C573  1  0.88302973  0.54601559  0.28338795  1
  C  C574  1  0.88173209  0.56237080  0.29189264  1
  C  C575  1  0.89156924  0.57454585  0.27560259  1
  C  C576  1  0.90169620  0.57043701  0.25261289  1
  C  C577  1  0.49749522  0.94263346  0.13282348  1
  C  C578  1  0.48050438  0.93664269  0.13556725  1
  C  C579  1  0.46963411  0.94201129  0.11379764  1
  C  C580  1  0.47507014  0.95309788  0.09209613  1
  C  C581  1  0.49188562  0.95966148  0.09089557  1
  C  C582  1  0.50298071  0.95356221  0.11086023  1
  C  C583  1  0.47471661  0.92589956  0.15832644  1
  C  C584  1  0.46944731  0.91656882  0.17818261  1
  C  C585  1  0.46370481  0.90639847  0.19981374  1
  C  C586  1  0.45846534  0.89706319  0.21968798  1
  C  C587  1  0.45331648  0.88640184  0.24302081  1
  C  C588  1  0.43663713  0.87979600  0.24816032  1
  C  C589  1  0.43225747  0.86914792  0.27136629  1
  C  C590  1  0.44437538  0.86422132  0.29113150  1
  C  C591  1  0.46083467  0.87131927  0.28659764  1
  C  C592  1  0.46522205  0.88171801  0.26349432  1
  C  C593  1  0.52596915  0.04913139  0.14209686  1
  C  C594  1  0.53314602  0.06543351  0.13761395  1
  C  C595  1  0.53395358  0.07095300  0.10775572  1
  C  C596  1  0.52802371  0.06101703  0.08458011  1
  C  C597  1  0.52266807  0.04446322  0.08917619  1
  C  C598  1  0.52078253  0.03897205  0.11861551  1
  C  C599  1  0.53906175  0.07582913  0.16096744  1
  C  C600  1  0.54421812  0.08534842  0.18071763  1
  C  C601  1  0.54983314  0.09574641  0.20220947  1
  C  C602  1  0.55498428  0.10529069  0.22193870  1
  C  C603  1  0.56072287  0.11597755  0.24496765  1
  C  C604  1  0.56816680  0.13214294  0.23979877  1
  C  C605  1  0.57345483  0.14259757  0.26268706  1
  C  C606  1  0.57179933  0.13780011  0.29268289  1
  C  C607  1  0.56476056  0.12163470  0.29799042  1
  C  C608  1  0.55953018  0.11114830  0.27521512  1
  C  C609  1  0.06024960  0.46484486  0.11205701  1
  C  C610  1  0.06645431  0.47476108  0.13629912  1
  C  C611  1  0.06257394  0.49114732  0.13593795  1
  C  C612  1  0.05303796  0.49691097  0.11370648  1
  C  C613  1  0.04558308  0.48647296  0.09171856  1
  C  C614  1  0.05028546  0.47053524  0.09032617  1
  C  C615  1  0.07601542  0.46889511  0.15918341  1
  C  C616  1  0.08443754  0.46390046  0.17921232  1
  C  C617  1  0.09361837  0.45845746  0.20103080  1
  C  C618  1  0.10204873  0.45346872  0.22105855  1
  C  C619  1  0.11177987  0.44818177  0.24427983  1
  C  C620  1  0.11774367  0.45905734  0.26729051  1
  C  C621  1  0.12744722  0.45428599  0.29007097  1
  C  C622  1  0.13196235  0.43824820  0.29248048  1
  C  C623  1  0.12594911  0.42720334  0.26982358  1
  C  C624  1  0.11633239  0.43203293  0.24667739  1
  C  C625  1  0.95449798  0.51206991  0.86100593  1
  C  C626  1  0.94800847  0.52727863  0.86406211  1
  C  C627  1  0.95160714  0.53578982  0.89112260  1
  C  C628  1  0.96167883  0.53005299  0.91259782  1
  C  C629  1  0.96896779  0.51546847  0.90808830  1
  C  C630  1  0.96402001  0.50610950  0.88295827  1
  C  C631  1  0.93841065  0.53326037  0.84146114  1
  C  C632  1  0.92995330  0.53821053  0.82149818  1
  C  C633  1  0.92073611  0.54358508  0.79975810  1
  C  C634  1  0.91226410  0.54849645  0.77977625  1
  C  C635  1  0.90254348  0.55358385  0.75653237  1
  C  C636  1  0.89497208  0.56836622  0.75723318  1
  C  C637  1  0.88524948  0.57285729  0.73420005  1
  C  C638  1  0.88213290  0.56284113  0.70875320  1
  C  C639  1  0.89056983  0.54867193  0.70712913  1
  C  C640  1  0.89997883  0.54401367  0.73034748  1
  C  C641  1  0.48420871  0.95423858  0.85921864  1
  C  C642  1  0.48090542  0.93712498  0.86315748  1
  C  C643  1  0.48431456  0.93102801  0.89174427  1
  C  C644  1  0.49020812  0.94126421  0.91453705  1
  C  C645  1  0.49176143  0.95830081  0.91101200  1
  C  C646  1  0.48979430  0.96446762  0.88230977  1
  C  C647  1  0.47476793  0.92663176  0.84016142  1
  C  C648  1  0.46964996  0.91714845  0.82035880  1
  C  C649  1  0.46410297  0.90680314  0.79880619  1
  C  C650  1  0.45901828  0.89729802  0.77900496  1
  C  C651  1  0.45354815  0.88651729  0.75605505  1
  C  C652  1  0.45056526  0.86936549  0.76047218  1
  C  C653  1  0.44541643  0.85884375  0.73773662  1
  C  C654  1  0.44374233  0.86449284  0.70841547  1
  C  C655  1  0.44587573  0.88158614  0.70406527  1
  C  C656  1  0.45048365  0.89217936  0.72697964  1
  N  N657  1  0.03518994  0.48522530  0.96393073  1
  N  N658  1  0.97820315  0.50216859  0.95604851  1
  N  N659  1  0.97915279  0.51707051  0.03631168  1
  N  N660  1  0.03610123  0.50015209  0.04424402  1
  N  N661  1  0.51281168  0.03434834  0.03748236  1
  N  N662  1  0.48990343  0.97604837  0.04329379  1
  N  N663  1  0.50154928  0.96787037  0.96315611  1
  N  N664  1  0.52436176  0.02652328  0.95727624  1
  N  N665  1  0.51262402  0.47968154  0.49925983  1
  N  N666  1  0.52249210  0.47614373  0.52094574  1
  N  N667  1  0.52880770  0.50840853  0.48572150  1
  N  N668  1  0.52862324  0.50841228  0.45656293  1
  N  N669  1  0.50164890  0.52281402  0.50072137  1
  N  N670  1  0.49171143  0.52632824  0.47911298  1
  N  N671  1  0.48578361  0.49393785  0.51456079  1
  N  N672  1  0.48590804  0.49384359  0.54371062  1
  O  O673  1  0.18852478  0.42351149  0.43192994  1
  O  O674  1  0.19333315  0.42477013  0.57479273  1
  O  O675  1  0.25113449  0.43701234  0.48898829  1
  O  O676  1  0.58621259  0.19676609  0.43264155  1
  O  O677  1  0.58500748  0.20121829  0.57556055  1
  O  O678  1  0.57254468  0.25566829  0.48962168  1
  O  O679  1  0.82312179  0.55821514  0.56732838  1
  O  O680  1  0.81889850  0.55957452  0.42509278  1
  O  O681  1  0.76319308  0.57188034  0.51069927  1
  O  O682  1  0.44879943  0.80728626  0.56692016  1
  O  O683  1  0.44741448  0.80283069  0.42443053  1
  O  O684  1  0.43492230  0.74509506  0.51000521  1
