# generated using pymatgen
data_Be4H178C255O28
_symmetry_space_group_name_H-M   'P 1'
_cell_length_a   69.64949239
_cell_length_b   73.94857455
_cell_length_c   44.06027245
_cell_angle_alpha   90.06876938
_cell_angle_beta   90.15235493
_cell_angle_gamma   127.46835379
_symmetry_Int_Tables_number   1
_chemical_formula_structural   Be4H178C255O28
_chemical_formula_sum   'Be4 H178 C255 O28'
_cell_volume   180111.43219333
_cell_formula_units_Z   1
loop_
 _symmetry_equiv_pos_site_id
 _symmetry_equiv_pos_as_xyz
  1  'x, y, z'
loop_
 _atom_site_type_symbol
 _atom_site_label
 _atom_site_symmetry_multiplicity
 _atom_site_fract_x
 _atom_site_fract_y
 _atom_site_fract_z
 _atom_site_occupancy
  Be  Be0  1  0.72569403  0.36076352  0.53655764  1
  Be  Be1  1  0.71237335  0.38986900  0.47078930  1
  Be  Be2  1  0.71223916  0.38956530  0.53769034  1
  Be  Be3  1  0.72591695  0.36113791  0.47201409  1
  H  H4  1  0.05124871  0.06901488  0.00522167  1
  H  H5  1  0.97879642  0.00693017  0.99251982  1
  H  H6  1  0.03859821  0.00419751  0.99612595  1
  H  H7  1  0.07005419  0.02278563  0.02084973  1
  H  H8  1  0.07206910  0.02518473  0.97983163  1
  H  H9  1  0.02751250  0.07765884  0.02689417  1
  H  H10  1  0.03238901  0.08168049  0.98641787  1
  H  H11  1  0.96578887  0.97683102  0.01798422  1
  H  H12  1  0.96199770  0.97299459  0.97737204  1
  H  H13  1  0.90236747  0.34652747  0.82217176  1
  H  H14  1  0.84996989  0.30240002  0.82892663  1
  H  H15  1  0.84093446  0.27871891  0.87057932  1
  H  H16  1  0.85278647  0.26705089  0.91449022  1
  H  H17  1  0.92776188  0.32345320  0.89906732  1
  H  H18  1  0.91603958  0.33455862  0.85384474  1
  H  H19  1  0.86983160  0.25530818  0.94156443  1
  H  H20  1  0.86768669  0.27513840  0.96056141  1
  H  H21  1  0.89325322  0.30898415  0.02619264  1
  H  H22  1  0.86717012  0.28542448  0.00828153  1
  H  H23  1  0.89159389  0.30748202  0.98622690  1
  H  H24  1  0.89416693  0.25050090  0.93088757  1
  H  H25  1  0.88259459  0.22706772  0.95540654  1
  H  H26  1  0.91354595  0.24479294  0.94512226  1
  H  H27  1  0.94061557  0.28601221  0.07248880  1
  H  H28  1  0.95503661  0.28042108  0.04494256  1
  H  H29  1  0.92869122  0.25775991  0.06354278  1
  H  H30  1  0.92534825  0.23924064  0.02310773  1
  H  H31  1  0.91923273  0.23487105  0.98349140  1
  H  H32  1  0.93280970  0.21822073  0.00101738  1
  H  H33  1  0.95367666  0.20152005  0.00314679  1
  H  H34  1  0.02204206  0.26801040  0.98882936  1
  H  H35  1  1.00031821  0.28476456  0.98670415  1
  H  H36  1  0.02169484  0.23373516  0.99463700  1
  H  H37  1  0.97106714  0.18900900  0.00946402  1
  H  H38  1  0.93767576  0.31046567  0.06447088  1
  H  H39  1  0.91673688  0.31504367  0.05252806  1
  H  H40  1  0.93692320  0.33282041  0.09439108  1
  H  H41  1  0.93364076  0.35400457  0.13427010  1
  H  H42  1  0.86521606  0.29155590  0.16187680  1
  H  H43  1  0.86987332  0.27037699  0.12356693  1
  H  H44  1  0.91058902  0.35513682  0.17711312  1
  H  H45  1  0.87131137  0.30657669  0.20076418  1
  H  H46  1  0.50367740  0.19754137  0.19547822  1
  H  H47  1  0.51265285  0.16143580  0.18992170  1
  H  H48  1  0.49328144  0.13587982  0.14652277  1
  H  H49  1  0.46836148  0.12242186  0.10046892  1
  H  H50  1  0.45729815  0.17329465  0.11280908  1
  H  H51  1  0.48210306  0.18692432  0.15891686  1
  H  H52  1  0.43630863  0.10862354  0.06602664  1
  H  H53  1  0.46396344  0.13124652  0.04946410  1
  H  H54  1  0.47868866  0.16298137  0.98147165  1
  H  H55  1  0.47651471  0.14049250  0.99939716  1
  H  H56  1  0.47911093  0.16192774  0.02149149  1
  H  H57  1  0.40432834  0.10161989  0.07750637  1
  H  H58  1  0.38714829  0.07798731  0.05255683  1
  H  H59  1  0.37676229  0.09382382  0.06286093  1
  H  H60  1  0.39940089  0.13531238  0.93675425  1
  H  H61  1  0.37822634  0.12870476  0.96538936  1
  H  H62  1  0.37600490  0.10672111  0.94559226  1
  H  H63  1  0.35686260  0.08830989  0.98591113  1
  H  H64  1  0.35823285  0.08345476  0.02504491  1
  H  H65  1  0.32296786  0.06793528  0.00934693  1
  H  H66  1  0.28077862  0.05316196  0.00497290  1
  H  H67  1  0.30186540  0.12088046  0.02057052  1
  H  H68  1  0.34497915  0.13603589  0.02324663  1
  H  H69  1  0.26003765  0.09023323  0.01330198  1
  H  H70  1  0.24455188  0.04141324  0.00171051  1
  H  H71  1  0.43287056  0.15931664  0.94259852  1
  H  H72  1  0.46119502  0.16713528  0.95436994  1
  H  H73  1  0.45882346  0.18213669  0.90979866  1
  H  H74  1  0.48664835  0.20432425  0.86802696  1
  H  H75  1  0.48181007  0.14578215  0.83929233  1
  H  H76  1  0.45402510  0.12373016  0.88165784  1
  H  H77  1  0.50977415  0.20922843  0.82655467  1
  H  H78  1  0.50370462  0.16739826  0.79954188  1
  H  H79  1  0.68835009  0.56102267  0.80716681  1
  H  H80  1  0.72455461  0.55288144  0.82987173  1
  H  H81  1  0.75010857  0.57467476  0.86987345  1
  H  H82  1  0.76126931  0.59920583  0.91456111  1
  H  H83  1  0.70122421  0.60073174  0.89702051  1
  H  H84  1  0.68985932  0.57602286  0.85188547  1
  H  H85  1  0.77239236  0.62740358  0.94348746  1
  H  H86  1  0.75008817  0.60062352  0.96025235  1
  H  H87  1  0.71505951  0.58317643  0.02680099  1
  H  H88  1  0.74044415  0.58811506  0.00886202  1
  H  H89  1  0.71638983  0.58317626  0.98677612  1
  H  H90  1  0.77464550  0.65484928  0.93088367  1
  H  H91  1  0.79981055  0.67296255  0.95512405  1
  H  H92  1  0.78044311  0.67995300  0.94482845  1
  H  H93  1  0.73558690  0.65512661  0.07113535  1
  H  H94  1  0.74046827  0.67453348  0.04279458  1
  H  H95  1  0.76518444  0.67884930  0.06219081  1
  H  H96  1  0.78346405  0.69789216  0.02139356  1
  H  H97  1  0.78816927  0.69696191  0.98183201  1
  H  H98  1  0.80263312  0.72788049  0.99773037  1
  H  H99  1  0.81778897  0.76694981  -0.00068617  1
  H  H100  1  0.74472700  0.74595033  0.98798898  1
  H  H101  1  0.72956297  0.70570071  0.98519567  1
  H  H102  1  0.78217417  0.78948970  0.99348935  1
  H  H103  1  0.82722573  0.79322503  0.01396550  1
  H  H104  1  0.71115118  0.62283709  0.06333929  1
  H  H105  1  0.70736478  0.59767114  0.05356397  1
  H  H106  1  0.69030125  0.59821183  0.09725077  1
  H  H107  1  0.66993211  0.57041504  0.13869083  1
  H  H108  1  0.73741002  0.58233288  0.16109386  1
  H  H109  1  0.75806628  0.61187239  0.12149039  1
  H  H110  1  0.67098263  0.54770303  0.17970205  1
  H  H111  1  0.72300937  0.57137701  0.20291684  1
  H  H112  1  0.74140890  0.39288440  0.56173328  1
  H  H113  1  0.74161145  0.39313041  0.44709598  1
  H  H114  1  0.74637151  0.35633629  0.50428211  1
  H  H115  1  0.71419977  0.41193676  0.50454254  1
  H  H116  1  0.82643633  0.30416244  0.73982469  1
  H  H117  1  0.87218774  0.37683329  0.75493981  1
  H  H118  1  0.89577933  0.37316789  0.79297044  1
  H  H119  1  0.84970343  0.30036592  0.77800310  1
  H  H120  1  0.80544615  0.38670975  0.64981548  1
  H  H121  1  0.77899836  0.39021494  0.61603539  1
  H  H122  1  0.73595322  0.31862224  0.59565066  1
  H  H123  1  0.76052797  0.31448215  0.63208851  1
  H  H124  1  0.54413308  0.19644469  0.29902482  1
  H  H125  1  0.57193275  0.25685701  0.24697266  1
  H  H126  1  0.54563018  0.23308201  0.20426166  1
  H  H127  1  0.51868060  0.17260694  0.25599281  1
  H  H128  1  0.64442506  0.32733147  0.36240447  1
  H  H129  1  0.67315027  0.35489154  0.40158112  1
  H  H130  1  0.64993844  0.29928405  0.46172406  1
  H  H131  1  0.62079605  0.27187142  0.42298486  1
  H  H132  1  0.54233314  0.19878044  0.70482130  1
  H  H133  1  0.57468824  0.25670549  0.76445572  1
  H  H134  1  0.54774241  0.23182428  0.80540385  1
  H  H135  1  0.51528179  0.17364813  0.74578992  1
  H  H136  1  0.64813360  0.32723572  0.64774832  1
  H  H137  1  0.67682138  0.35466388  0.60869360  1
  H  H138  1  0.64744424  0.29948717  0.54494695  1
  H  H139  1  0.61853986  0.27224883  0.58368023  1
  H  H140  1  0.70536858  0.53638120  0.29705754  1
  H  H141  1  0.68402825  0.48648775  0.22718762  1
  H  H142  1  0.68093210  0.50974164  0.19040672  1
  H  H143  1  0.70411770  0.56049179  0.25958701  1
  H  H144  1  0.69771065  0.42520160  0.32841456  1
  H  H145  1  0.70263825  0.40136203  0.36189572  1
  H  H146  1  0.72217198  0.44753829  0.43623114  1
  H  H147  1  0.71919216  0.47239734  0.40204620  1
  H  H148  1  0.70354248  0.53606082  0.71043113  1
  H  H149  1  0.68720886  0.48766755  0.78012005  1
  H  H150  1  0.68534066  0.51112654  0.81799198  1
  H  H151  1  0.69916477  0.55832475  0.74752725  1
  H  H152  1  0.69966292  0.42604075  0.68052549  1
  H  H153  1  0.70515458  0.40239683  0.64731571  1
  H  H154  1  0.71956186  0.44565047  0.57146052  1
  H  H155  1  0.71592034  0.47032509  0.60524464  1
  H  H156  1  0.88044052  0.37670835  0.26071791  1
  H  H157  1  0.81840844  0.30583280  0.26090498  1
  H  H158  1  0.83790070  0.29771625  0.22244625  1
  H  H159  1  0.90001239  0.36883514  0.22212760  1
  H  H160  1  0.75391407  0.31408917  0.36318807  1
  H  H161  1  0.72877900  0.31775685  0.39906416  1
  H  H162  1  0.78608304  0.38947260  0.40807213  1
  H  H163  1  0.81189997  0.38578530  0.37363240  1
  H  H164  1  0.99806772  0.11583362  0.05510153  1
  H  H165  1  0.99627326  0.15047734  0.05448340  1
  H  H166  1  0.97148875  0.13615515  0.97036396  1
  H  H167  1  0.97194578  0.10069322  0.96933469  1
  H  H168  1  0.04002760  0.13942165  0.98459565  1
  H  H169  1  0.03969027  0.17497134  0.98275939  1
  H  H170  1  0.12297349  0.01502481  0.03265024  1
  H  H171  1  0.16141370  0.01571690  0.03333064  1
  H  H172  1  0.20293067  0.08007360  0.02877536  1
  H  H173  1  0.16494606  0.08003420  0.02933323  1
  H  H174  1  0.14074705  0.04324725  0.95213801  1
  H  H175  1  0.17914533  0.04407308  0.95158092  1
  H  H176  1  0.89697968  0.92062398  0.99980566  1
  H  H177  1  0.85384666  0.88030377  1.00038554  1
  H  H178  1  0.87916035  0.85526212  0.04928535  1
  H  H179  1  0.92168494  0.89618766  0.05105870  1
  H  H180  1  0.92471098  0.89424774  0.96040721  1
  H  H181  1  0.88252293  0.85310382  0.96153298  1
  C  C182  1  0.04793580  0.03830025  0.00061519  1
  C  C183  1  0.03859299  0.05062066  0.00202925  1
  C  C184  1  0.01363024  0.03908703  0.99943517  1
  C  C185  1  0.99800671  0.01534293  0.99587437  1
  C  C186  1  0.00761674  0.00339575  0.99618807  1
  C  C187  1  0.03243906  0.01464600  0.99743136  1
  C  C188  1  0.07943729  0.03485251  0.00155987  1
  C  C189  1  0.01844690  0.07431044  0.00450431  1
  C  C190  1  0.96799828  0.96901558  0.99804068  1
  C  C191  1  0.88367661  0.33284444  0.81588505  1
  C  C192  1  0.86943802  0.31375916  0.83321371  1
  C  C193  1  0.87736140  0.30771897  0.85898258  1
  C  C194  1  0.86001038  0.28854804  0.87668848  1
  C  C195  1  0.86665738  0.28213997  0.90170660  1
  C  C196  1  0.89107412  0.29497956  0.90989132  1
  C  C197  1  0.90877361  0.31379304  0.89256356  1
  C  C198  1  0.90205767  0.32005837  0.86735375  1
  C  C199  1  0.88034339  0.27154043  0.95420174  1
  C  C200  1  0.89348332  0.27116992  0.98097418  1
  C  C201  1  0.90367430  0.25953435  0.97846779  1
  C  C202  1  0.91790572  0.26097614  0.00267249  1
  C  C203  1  0.92221145  0.27420503  0.02877636  1
  C  C204  1  0.91277828  0.28657024  0.03017302  1
  C  C205  1  0.89796095  0.28486521  0.00658241  1
  C  C206  1  0.88707945  0.29729093  0.00694169  1
  C  C207  1  0.89834504  0.24490894  0.95119304  1
  C  C208  1  0.93736336  0.27478255  0.05366029  1
  C  C209  1  0.92811779  0.24795310  1.00139307  1
  C  C210  1  0.96527080  0.25287335  0.99505928  1
  C  C211  1  0.95245324  0.22944718  0.99898421  1
  C  C212  1  0.96453721  0.21988602  0.99994532  1
  C  C213  1  0.98999481  0.23320320  0.99674856  1
  C  C214  1  0.00246388  0.25696930  0.99179794  1
  C  C215  1  0.99036268  0.26655327  0.99078809  1
  C  C216  1  0.00215894  0.22281396  0.99793484  1
  C  C217  1  0.99029868  0.19983621  0.00344357  1
  C  C218  1  0.91877645  0.30168909  0.05715038  1
  C  C219  1  0.90271497  0.30040716  0.10535343  1
  C  C220  1  0.92103142  0.32384169  0.10894504  1
  C  C221  1  0.91943361  0.33570619  0.13196944  1
  C  C222  1  0.89980876  0.32457176  0.15252336  1
  C  C223  1  0.88166556  0.30076101  0.14836340  1
  C  C224  1  0.88363589  0.28875913  0.12591210  1
  C  C225  1  0.89758780  0.33658552  0.17660483  1
  C  C226  1  0.88011476  0.32473349  0.19814266  1
  C  C227  1  0.51167818  0.18900830  0.20132245  1
  C  C228  1  0.50552965  0.17071035  0.18434145  1
  C  C229  1  0.49037015  0.16280413  0.15701453  1
  C  C230  1  0.48564805  0.14441943  0.13935360  1
  C  C231  1  0.47166291  0.13684919  0.11292235  1
  C  C232  1  0.46181868  0.14756849  0.10277550  1
  C  C233  1  0.46546496  0.16527067  0.12016449  1
  C  C234  1  0.47956954  0.17287329  0.14646823  1
  C  C235  1  0.44568039  0.12548067  0.05526734  1
  C  C236  1  0.43161467  0.12429242  0.02810205  1
  C  C237  1  0.40611192  0.11049058  0.03004131  1
  C  C238  1  0.39293170  0.11029792  0.00549973  1
  C  C239  1  0.40465387  0.12399069  0.97948864  1
  C  C240  1  0.43011700  0.13744290  0.97755290  1
  C  C241  1  0.44366635  0.13750387  0.00171608  1
  C  C242  1  0.47072702  0.15142668  0.00087212  1
  C  C243  1  0.39303195  0.09539167  0.05700668  1
  C  C244  1  0.38902034  0.12379108  0.95564010  1
  C  C245  1  0.36599892  0.09673100  0.00757086  1
  C  C246  1  0.33665123  0.10312147  0.01518914  1
  C  C247  1  0.31857853  0.07975878  0.01090325  1
  C  C248  1  0.29459129  0.07132306  0.00907978  1
  C  C249  1  0.28792788  0.08593502  0.01228917  1
  C  C250  1  0.30668631  0.10945468  0.01777825  1
  C  C251  1  0.33069722  0.11794448  0.01924806  1
  C  C252  1  0.26331813  0.07767364  0.01032982  1
  C  C253  1  0.24326763  0.05529172  0.00491798  1
  C  C254  1  0.44234300  0.15237860  0.94996302  1
  C  C255  1  0.45626545  0.15198326  0.90010429  1
  C  C256  1  0.46463423  0.17436284  0.89524847  1
  C  C257  1  0.47995542  0.18674669  0.87104091  1
  C  C258  1  0.48714900  0.17735181  0.85019808  1
  C  C259  1  0.47717538  0.15413595  0.85468039  1
  C  C260  1  0.46165223  0.14160231  0.87885158  1
  C  C261  1  0.50389467  0.19177748  0.82585980  1
  C  C262  1  0.51112885  0.18522999  0.80231844  1
  C  C263  1  0.69701795  0.55280472  0.80945556  1
  C  C264  1  0.71334231  0.55856949  0.83185593  1
  C  C265  1  0.71915738  0.57334111  0.85746412  1
  C  C266  1  0.73919979  0.58015760  0.87593849  1
  C  C267  1  0.74536980  0.59379129  0.90123376  1
  C  C268  1  0.73133946  0.60079169  0.90888424  1
  C  C269  1  0.71172002  0.59482648  0.89078504  1
  C  C270  1  0.70553689  0.58108826  0.86542918  1
  C  C271  1  0.75462434  0.61732420  0.95474217  1
  C  C272  1  0.75417509  0.62948085  0.98154194  1
  C  C273  1  0.76554065  0.65296871  0.97850178  1
  C  C274  1  0.76296243  0.66413177  0.00218954  1
  C  C275  1  0.74883822  0.65216597  0.02804224  1
  C  C276  1  0.73650338  0.62842170  0.02958883  1
  C  C277  1  0.73947461  0.61686952  0.00679527  1
  C  C278  1  0.72723806  0.59170682  0.00747418  1
  C  C279  1  0.78071934  0.66574855  0.95109624  1
  C  C280  1  0.74728754  0.66560550  0.05221008  1
  C  C281  1  0.77455564  0.68892782  0.99987965  1
  C  C282  1  0.76489150  0.71416173  0.99272609  1
  C  C283  1  0.78966423  0.73152706  0.99633127  1
  C  C284  1  0.79825711  0.75395329  0.99756226  1
  C  C285  1  0.78236549  0.75984336  0.99538229  1
  C  C286  1  0.75732183  0.74190447  0.99047235  1
  C  C287  1  0.74874576  0.71936399  0.98902423  1
  C  C288  1  0.79291261  0.78348660  0.99730063  1
  C  C289  1  0.81723370  0.79896563  0.00429208  1
  C  C290  1  0.72101433  0.61613784  0.05679583  1
  C  C291  1  0.72515549  0.60557532  0.10577825  1
  C  C292  1  0.70049974  0.59445894  0.11104319  1
  C  C293  1  0.68914300  0.57907528  0.13473323  1
  C  C294  1  0.70207875  0.57450238  0.15389237  1
  C  C295  1  0.72712557  0.58640897  0.14824186  1
  C  C296  1  0.73872016  0.60250247  0.12531293  1
  C  C297  1  0.69062718  0.55793118  0.17807674  1
  C  C298  1  0.70397947  0.55673267  0.19942516  1
  C  C299  1  0.73720441  0.35602154  0.58888784  1
  C  C300  1  0.71532106  0.40735461  0.42010041  1
  C  C301  1  0.71603854  0.40742339  0.58857024  1
  C  C302  1  0.73800043  0.35692375  0.41971115  1
  C  C303  1  0.68246150  0.34616276  0.55137611  1
  C  C304  1  0.68247033  0.34634504  0.45683260  1
  C  C305  1  0.84139997  0.31909182  0.75205233  1
  C  C306  1  0.84723459  0.34070614  0.74514482  1
  C  C307  1  0.86744632  0.36016941  0.76032070  1
  C  C308  1  0.88044972  0.35806790  0.78152953  1
  C  C309  1  0.87328119  0.33627959  0.79021181  1
  C  C310  1  0.85402777  0.31698383  0.77383700  1
  C  C311  1  0.83375891  0.34264733  0.72377087  1
  C  C312  1  0.82197957  0.34433682  0.70489728  1
  C  C313  1  0.80917991  0.34617847  0.68437407  1
  C  C314  1  0.79742192  0.34788613  0.66549841  1
  C  C315  1  0.78393090  0.35015214  0.64449003  1
  C  C316  1  0.78966399  0.37181005  0.63860590  1
  C  C317  1  0.77500757  0.37373026  0.62007344  1
  C  C318  1  0.75491744  0.35421692  0.60625301  1
  C  C319  1  0.75064485  0.33322102  0.60845722  1
  C  C320  1  0.76446760  0.33099782  0.62825306  1
  C  C321  1  0.54456115  0.20446524  0.27800448  1
  C  C322  1  0.56001710  0.22872324  0.27697101  1
  C  C323  1  0.56000267  0.23833984  0.24904937  1
  C  C324  1  0.54506825  0.22496700  0.22521240  1
  C  C325  1  0.52930520  0.20090226  0.22654094  1
  C  C326  1  0.53010479  0.19107001  0.25367203  1
  C  C327  1  0.57466517  0.24264180  0.30153553  1
  C  C328  1  0.58766058  0.25529641  0.32254211  1
  C  C329  1  0.60185736  0.26913199  0.34538448  1
  C  C330  1  0.61497944  0.28195482  0.36619368  1
  C  C331  1  0.63061112  0.29730044  0.38916551  1
  C  C332  1  0.64563872  0.32129510  0.38436560  1
  C  C333  1  0.66136098  0.33669015  0.40639413  1
  C  C334  1  0.66333382  0.32899669  0.43433381  1
  C  C335  1  0.64883306  0.30551329  0.43991003  1
  C  C336  1  0.63248560  0.29008853  0.41814379  1
  C  C337  1  0.54332912  0.20596861  0.72694372  1
  C  C338  1  0.56043373  0.22999488  0.73082398  1
  C  C339  1  0.56124421  0.23848190  0.76022083  1
  C  C340  1  0.54577248  0.22440588  0.78315887  1
  C  C341  1  0.52809096  0.20053463  0.77875741  1
  C  C342  1  0.52814704  0.19190220  0.75000366  1
  C  C343  1  0.57557577  0.24416839  0.70698418  1
  C  C344  1  0.58851686  0.25641991  0.68585163  1
  C  C345  1  0.60261950  0.26977473  0.66283673  1
  C  C346  1  0.61569084  0.28227739  0.64195614  1
  C  C347  1  0.63126866  0.29748014  0.61906829  1
  C  C348  1  0.64799908  0.32131484  0.62501434  1
  C  C349  1  0.66365367  0.33664847  0.60311832  1
  C  C350  1  0.66369543  0.32896424  0.57416344  1
  C  C351  1  0.64764493  0.30564185  0.56749414  1
  C  C352  1  0.63141960  0.29032282  0.58922480  1
  C  C353  1  0.70060453  0.53093926  0.27344529  1
  C  C354  1  0.69603603  0.51014429  0.26452765  1
  C  C355  1  0.68832505  0.50275402  0.23407725  1
  C  C356  1  0.68719830  0.51606376  0.21343289  1
  C  C357  1  0.69588998  0.53845764  0.22137481  1
  C  C358  1  0.70048819  0.54455890  0.25245953  1
  C  C359  1  0.69861021  0.49754687  0.28548620  1
  C  C360  1  0.70118659  0.48685579  0.30411470  1
  C  C361  1  0.70397144  0.47520836  0.32439702  1
  C  C362  1  0.70632456  0.46424222  0.34278886  1
  C  C363  1  0.70846376  0.45076354  0.36264066  1
  C  C364  1  0.70354249  0.43019001  0.35194109  1
  C  C365  1  0.70610561  0.41687378  0.37063194  1
  C  C366  1  0.71294169  0.42297476  0.40111137  1
  C  C367  1  0.71707079  0.44278969  0.41254913  1
  C  C368  1  0.71527563  0.45660102  0.39355568  1
  C  C369  1  0.69905228  0.53053398  0.73398411  1
  C  C370  1  0.69622163  0.51047651  0.74259473  1
  C  C371  1  0.69041078  0.50349525  0.77342144  1
  C  C372  1  0.68958214  0.51669874  0.79444972  1
  C  C373  1  0.69340906  0.53720598  0.78594281  1
  C  C374  1  0.69678157  0.54298549  0.75474686  1
  C  C375  1  0.69873882  0.49794475  0.72149675  1
  C  C376  1  0.70099873  0.48690089  0.70311880  1
  C  C377  1  0.70344351  0.47487344  0.68313448  1
  C  C378  1  0.70560575  0.46366342  0.66495984  1
  C  C379  1  0.70785637  0.45013818  0.64538134  1
  C  C380  1  0.70450784  0.43042778  0.65670764  1
  C  C381  1  0.70740095  0.41724328  0.63820659  1
  C  C382  1  0.71304622  0.42267474  0.60743244  1
  C  C383  1  0.71548146  0.44153508  0.59540192  1
  C  C384  1  0.71332485  0.45522005  0.61413798  1
  C  C385  1  0.87118989  0.35947501  0.25187833  1
  C  C386  1  0.84793709  0.34195404  0.26351271  1
  C  C387  1  0.83628077  0.31948687  0.25217739  1
  C  C388  1  0.84719275  0.31499129  0.23096376  1
  C  C389  1  0.87042262  0.33240107  0.21932181  1
  C  C390  1  0.88207857  0.35492777  0.23025389  1
  C  C391  1  0.83586614  0.34538383  0.28529764  1
  C  C392  1  0.82384607  0.34660674  0.30423924  1
  C  C393  1  0.81045066  0.34754781  0.32481089  1
  C  C394  1  0.79815358  0.34841606  0.34369877  1
  C  C395  1  0.78417075  0.34995116  0.36470171  1
  C  C396  1  0.76073862  0.33056526  0.37294495  1
  C  C397  1  0.74662388  0.33266029  0.39231741  1
  C  C398  1  0.75516059  0.35422172  0.40247109  1
  C  C399  1  0.77903447  0.37319432  0.39752489  1
  C  C400  1  0.79340671  0.37111204  0.37872861  1
  C  C401  1  0.00213928  0.11835685  0.00404814  1
  C  C402  1  0.99884724  0.12494173  0.03511158  1
  C  C403  1  0.99881497  0.14307062  0.03493289  1
  C  C404  1  0.00253846  0.15336922  0.00381324  1
  C  C405  1  0.98298942  0.13388377  0.98399074  1
  C  C406  1  0.98280226  0.11562012  0.98399642  1
  C  C407  1  0.02546263  0.13994452  0.99220600  1
  C  C408  1  0.02558293  0.15817169  0.99191249  1
  C  C409  1  0.00266564  0.09888343  0.00403880  1
  C  C410  1  0.00590087  0.08440151  0.00364285  1
  C  C411  1  0.00237788  0.17297973  0.00340334  1
  C  C412  1  0.00081608  0.18866774  0.00274401  1
  C  C413  1  0.14398529  0.04681780  0.00337354  1
  C  C414  1  0.14002890  0.02712256  0.02091506  1
  C  C415  1  0.15927217  0.02710176  0.02077797  1
  C  C416  1  0.18042842  0.04660749  0.00290388  1
  C  C417  1  0.18548463  0.06766285  0.01782912  1
  C  C418  1  0.16630530  0.06775832  0.01795416  1
  C  C419  1  0.15137869  0.04511808  0.97179714  1
  C  C420  1  0.17060676  0.04512244  0.97152767  1
  C  C421  1  0.12330664  0.04710367  0.00349187  1
  C  C422  1  0.10498765  0.04579465  0.00331420  1
  C  C423  1  0.20113611  0.04661395  0.00254194  1
  C  C424  1  0.22041453  0.04951697  0.00340324  1
  C  C425  1  0.91400221  0.90246049  0.00381071  1
  C  C426  1  0.89324764  0.90401134  0.00122063  1
  C  C427  1  0.87141348  0.88366001  0.00088900  1
  C  C428  1  0.87270541  0.86403799  0.00300017  1
  C  C429  1  0.88697415  0.86830669  0.03171607  1
  C  C430  1  0.90879151  0.88869979  0.03226877  1
  C  C431  1  0.91063000  0.88751867  0.97752374  1
  C  C432  1  0.88886817  0.86710566  0.97731450  1
  C  C433  1  0.93725122  0.92468163  0.00371604  1
  C  C434  1  0.95430121  0.94479658  0.00179942  1
  C  C435  1  0.84937151  0.84201761  0.00237754  1
  C  C436  1  0.83052641  0.82245823  0.00191173  1
  O  O437  1  0.07219668  0.04989675  0.00264276  1
  O  O438  1  0.00282008  0.04935985  0.99997816  1
  O  O439  1  0.99385330  0.98040503  0.99476496  1
  O  O440  1  0.89876834  0.28970555  0.93425187  1
  O  O441  1  0.90284866  0.28820800  0.08232102  1
  O  O442  1  0.95411824  0.26294386  0.99521149  1
  O  O443  1  0.44775445  0.14135539  0.07739849  1
  O  O444  1  0.44243075  0.13963390  0.92461913  1
  O  O445  1  0.36048756  0.11230699  0.01543263  1
  O  O446  1  0.73649541  0.61401032  0.93359530  1
  O  O447  1  0.73672346  0.61971657  0.08175303  1
  O  O448  1  0.75619674  0.69199875  0.99288088  1
  O  O449  1  0.68464706  0.36424641  0.54718622  1
  O  O450  1  0.73665680  0.35214122  0.56035856  1
  O  O451  1  0.72597034  0.36105069  0.60337286  1
  O  O452  1  0.71605398  0.41015597  0.44914054  1
  O  O453  1  0.71585531  0.39283645  0.40685506  1
  O  O454  1  0.69488014  0.34113099  0.46932177  1
  O  O455  1  0.69471014  0.34087248  0.53875647  1
  O  O456  1  0.71582163  0.40966773  0.55953489  1
  O  O457  1  0.71803442  0.39384242  0.60186984  1
  O  O458  1  0.73746339  0.35317743  0.44821465  1
  O  O459  1  0.72689675  0.36210506  0.40517721  1
  O  O460  1  0.68485718  0.36454594  0.46101607  1
  O  O461  1  0.73210257  0.38537942  0.54330300  1
  O  O462  1  0.73226785  0.38572770  0.46542344  1
  O  O463  1  0.73411888  0.35871177  0.50429878  1
  O  O464  1  0.71110562  0.39724176  0.50431529  1
