# generated using pymatgen
data_H148C189S2(N2O3)2
_symmetry_space_group_name_H-M   'P 1'
_cell_length_a   88.18975721
_cell_length_b   88.36731511
_cell_length_c   45.01288608
_cell_angle_alpha   89.82556784
_cell_angle_beta   90.25362242
_cell_angle_gamma   99.26337167
_symmetry_Int_Tables_number   1
_chemical_formula_structural   H148C189S2(N2O3)2
_chemical_formula_sum   'H296 C378 S4 N8 O12'
_cell_volume   346210.49917152
_cell_formula_units_Z   2
loop_
 _symmetry_equiv_pos_site_id
 _symmetry_equiv_pos_as_xyz
  1  'x, y, z'
loop_
 _atom_site_type_symbol
 _atom_site_label
 _atom_site_symmetry_multiplicity
 _atom_site_fract_x
 _atom_site_fract_y
 _atom_site_fract_z
 _atom_site_occupancy
  H  H0  1  0.97150610  0.47264899  0.95658823  1
  H  H1  1  0.02649920  0.48420364  0.94189933  1
  H  H2  1  0.02526796  0.48311050  0.98094461  1
  H  H3  1  0.00550123  0.50010298  0.94018103  1
  H  H4  1  0.00505488  0.50106819  0.97872157  1
  H  H5  1  0.99690361  0.47103071  0.94332678  1
  H  H6  1  0.99534616  0.47276044  0.98220595  1
  H  H7  1  0.98208488  0.50366247  0.98037408  1
  H  H8  1  0.96267092  0.49535415  0.97401655  1
  H  H9  1  0.02196421  0.51903183  0.98724651  1
  H  H10  1  0.04208265  0.52369980  0.99082863  1
  H  H11  1  0.02319418  0.51619439  0.93117737  1
  H  H12  1  0.03986734  0.52684510  0.94715878  1
  H  H13  1  0.98768707  0.48767726  0.91276379  1
  H  H14  1  0.97885582  0.50244303  0.92875917  1
  H  H15  1  0.03461261  0.52567238  0.04373831  1
  H  H16  1  0.97964158  0.51420562  0.05834616  1
  H  H17  1  0.98089001  0.51525319  0.01929552  1
  H  H18  1  0.00061578  0.49831096  0.06021878  1
  H  H19  1  0.00109239  0.49726768  0.02170087  1
  H  H20  1  0.00925312  0.52735098  0.05692715  1
  H  H21  1  0.01077636  0.52560104  0.01804133  1
  H  H22  1  0.02407871  0.49467137  0.01987223  1
  H  H23  1  0.04347413  0.50301353  0.02632994  1
  H  H24  1  0.98421782  0.47935479  0.01309269  1
  H  H25  1  0.96410205  0.47465259  0.00954165  1
  H  H26  1  0.98297998  0.48219092  0.06914642  1
  H  H27  1  0.96625378  0.47156841  0.05329177  1
  H  H28  1  0.01836048  0.51062250  0.08745601  1
  H  H29  1  0.02714786  0.49582409  0.07138862  1
  H  H30  1  0.47118556  0.97070507  0.04339264  1
  H  H31  1  0.48269671  0.02551664  0.05866655  1
  H  H32  1  0.48168220  0.02441712  0.01961764  1
  H  H33  1  0.49866853  0.00458483  0.06019732  1
  H  H34  1  0.49968050  0.00424864  0.02166064  1
  H  H35  1  0.46952950  0.99600444  0.05673794  1
  H  H36  1  0.47133279  0.99453529  0.01785893  1
  H  H37  1  0.50223708  0.98125298  0.01961876  1
  H  H38  1  0.49393312  0.96187793  0.02600418  1
  H  H39  1  0.51761996  0.02112369  0.01338733  1
  H  H40  1  0.52225370  0.04120166  0.00981705  1
  H  H41  1  0.51484637  0.02227336  0.06944210  1
  H  H42  1  0.52553991  0.03886724  0.05334907  1
  H  H43  1  0.48623469  0.98681050  0.08729865  1
  H  H44  1  0.50107393  0.97807817  0.07123434  1
  H  H45  1  0.52422249  0.03368088  0.95697279  1
  H  H46  1  0.51269160  0.97888249  0.94164069  1
  H  H47  1  0.51377794  0.97997717  0.98069532  1
  H  H48  1  0.49674875  0.99982143  0.94022336  1
  H  H49  1  0.49575706  0.00014097  0.97875605  1
  H  H50  1  0.52589308  0.00839127  0.94364864  1
  H  H51  1  0.52409940  0.00985921  0.98253523  1
  H  H52  1  0.49317192  0.02314604  0.98075473  1
  H  H53  1  0.50147891  0.04251390  0.97431438  1
  H  H54  1  0.47779270  0.98330437  0.98699936  1
  H  H55  1  0.47315479  0.96322566  0.99052027  1
  H  H56  1  0.48059261  0.98220654  0.93098306  1
  H  H57  1  0.46989268  0.96557217  0.94694211  1
  H  H58  1  0.50914291  0.01752191  0.91312422  1
  H  H59  1  0.49432455  0.02629402  0.92916659  1
  H  H60  1  0.53140697  0.43036677  0.53530787  1
  H  H61  1  0.50300354  0.45280645  0.45496538  1
  H  H62  1  0.53260951  0.45858823  0.53270995  1
  H  H63  1  0.50285804  0.42451821  0.45671932  1
  H  H64  1  0.57236902  0.46077024  0.47171132  1
  H  H65  1  0.54518262  0.46405168  0.46527954  1
  H  H66  1  0.55182796  0.50059541  0.53049658  1
  H  H67  1  0.57936196  0.49739884  0.53613792  1
  H  H68  1  0.46756105  0.57393406  0.52944063  1
  H  H69  1  0.47021049  0.54652256  0.52957439  1
  H  H70  1  0.50692902  0.55623006  0.46538767  1
  H  H71  1  0.50407592  0.58375110  0.46535385  1
  H  H72  1  0.42861169  0.50518907  0.53507227  1
  H  H73  1  0.45656452  0.50419270  0.52967250  1
  H  H74  1  0.46029148  0.54018239  0.46339246  1
  H  H75  1  0.43260107  0.54130675  0.46926039  1
  H  H76  1  0.14999425  0.57602646  0.31843191  1
  H  H77  1  0.14113732  0.54129697  0.33247076  1
  H  H78  1  0.15231906  0.53035311  0.37210626  1
  H  H79  1  0.17026945  0.53140914  0.41413370  1
  H  H80  1  0.18428907  0.57996452  0.39960171  1
  H  H81  1  0.16646012  0.57897889  0.35672181  1
  H  H82  1  0.19095343  0.53389231  0.43913560  1
  H  H83  1  0.17510603  0.53954652  0.45782851  1
  H  H84  1  0.17015188  0.56174018  0.52062837  1
  H  H85  1  0.16709313  0.54333645  0.50475048  1
  H  H86  1  0.16985555  0.55986501  0.48172568  1
  H  H87  1  0.21244119  0.53972506  0.43020981  1
  H  H88  1  0.22090321  0.52823405  0.45564017  1
  H  H89  1  0.23107916  0.54607966  0.44348420  1
  H  H90  1  0.22199211  0.57320443  0.56557367  1
  H  H91  1  0.23651185  0.57702824  0.53803907  1
  H  H92  1  0.23384184  0.55948939  0.55776148  1
  H  H93  1  0.24443224  0.55113399  0.51867104  1
  H  H94  1  0.24266059  0.54689848  0.48006522  1
  H  H95  1  0.26439451  0.54725832  0.49605059  1
  H  H96  1  0.29188033  0.55016558  0.49908633  1
  H  H97  1  0.29496835  0.59930379  0.48609081  1
  H  H98  1  0.26662903  0.59593936  0.48345637  1
  H  H99  1  0.31990723  0.58739850  0.49235673  1
  H  H100  1  0.31273597  0.55224165  0.50316367  1
  H  H101  1  0.20198861  0.57948820  0.55787874  1
  H  H102  1  0.18304226  0.57235600  0.54637421  1
  H  H103  1  0.18495939  0.58619696  0.58659123  1
  H  H104  1  0.16711870  0.59181363  0.62501094  1
  H  H105  1  0.16156163  0.54426980  0.65392325  1
  H  H106  1  0.17921559  0.53899671  0.61481732  1
  H  H107  1  0.14961776  0.58333925  0.66813037  1
  H  H108  1  0.14838599  0.54886567  0.68344187  1
  H  H109  1  0.55175127  0.14819590  0.32205710  1
  H  H110  1  0.58613579  0.14513028  0.32950389  1
  H  H111  1  0.59957980  0.16004657  0.37068913  1
  H  H112  1  0.59990273  0.17750088  0.41294407  1
  H  H113  1  0.55185370  0.17943502  0.39926292  1
  H  H114  1  0.55124103  0.16204059  0.35664097  1
  H  H115  1  0.59832114  0.19880963  0.43953257  1
  H  H116  1  0.59198841  0.18134628  0.45845167  1
  H  H117  1  0.56946292  0.17009780  0.52135339  1
  H  H118  1  0.58788835  0.17248349  0.50548609  1
  H  H119  1  0.57134245  0.17026539  0.48242496  1
  H  H120  1  0.59239115  0.21874725  0.43001317  1
  H  H121  1  0.60424667  0.23044570  0.45553422  1
  H  H122  1  0.58668562  0.23566476  0.44310994  1
  H  H123  1  0.55900009  0.21869612  0.56521285  1
  H  H124  1  0.55564026  0.23214305  0.53759978  1
  H  H125  1  0.57318566  0.23453609  0.55742142  1
  H  H126  1  0.58176133  0.24752997  0.51825045  1
  H  H127  1  0.58592497  0.24732332  0.47961811  1
  H  H128  1  0.58529174  0.26937822  0.49655748  1
  H  H129  1  0.58152685  0.29606435  0.49958760  1
  H  H130  1  0.53275865  0.28217160  0.48546919  1
  H  H131  1  0.53662678  0.25501427  0.48301866  1
  H  H132  1  0.54189652  0.30860598  0.49159702  1
  H  H133  1  0.57669254  0.32007698  0.50197340  1
  H  H134  1  0.55298496  0.19722497  0.55843429  1
  H  H135  1  0.55923259  0.18014923  0.54711463  1
  H  H136  1  0.54562524  0.17928832  0.58618054  1
  H  H137  1  0.53857415  0.15945512  0.62406198  1
  H  H138  1  0.58579492  0.16569267  0.65467325  1
  H  H139  1  0.59284518  0.18522601  0.61553983  1
  H  H140  1  0.54435115  0.14472221  0.66513447  1
  H  H141  1  0.57808063  0.14840337  0.68759818  1
  H  H142  1  0.85661625  0.44585139  0.67849048  1
  H  H143  1  0.85945549  0.41148136  0.67147327  1
  H  H144  1  0.84435355  0.39824678  0.63027522  1
  H  H145  1  0.82682342  0.39817666  0.58786029  1
  H  H146  1  0.82546288  0.44622876  0.60104737  1
  H  H147  1  0.84291159  0.44659154  0.64384788  1
  H  H148  1  0.80567920  0.39998330  0.56121444  1
  H  H149  1  0.82321306  0.40615444  0.54245690  1
  H  H150  1  0.83467372  0.42849588  0.47934921  1
  H  H151  1  0.83206435  0.41007859  0.49535672  1
  H  H152  1  0.83451557  0.42656491  0.51828363  1
  H  H153  1  0.78586373  0.40621841  0.57059588  1
  H  H154  1  0.77391169  0.39454158  0.54519392  1
  H  H155  1  0.76903624  0.41221138  0.55730929  1
  H  H156  1  0.78613926  0.43980601  0.43513278  1
  H  H157  1  0.77281970  0.44328277  0.46271111  1
  H  H158  1  0.77010584  0.42583195  0.44290459  1
  H  H159  1  0.75705177  0.41746512  0.48216878  1
  H  H160  1  0.75736084  0.41313690  0.52078849  1
  H  H161  1  0.73531063  0.41415806  0.50412161  1
  H  H162  1  0.70869023  0.41834224  0.50105279  1
  H  H163  1  0.72336418  0.46687405  0.51507541  1
  H  H164  1  0.75046360  0.46258570  0.51753666  1
  H  H165  1  0.69678113  0.45813417  0.50891470  1
  H  H166  1  0.68475348  0.42352665  0.49860801  1
  H  H167  1  0.80774602  0.44536272  0.44175504  1
  H  H168  1  0.82473368  0.43888228  0.45340873  1
  H  H169  1  0.82587254  0.45248156  0.41416874  1
  H  H170  1  0.84573777  0.45926608  0.37637442  1
  H  H171  1  0.83873041  0.41217808  0.34614424  1
  H  H172  1  0.81916744  0.40538005  0.38522719  1
  H  H173  1  0.86027487  0.45339770  0.33557513  1
  H  H174  1  0.85624091  0.41985674  0.31289758  1
  H  H175  1  0.42170784  0.85473845  0.68154880  1
  H  H176  1  0.45639016  0.86401601  0.66748739  1
  H  H177  1  0.46741721  0.85305681  0.62801884  1
  H  H178  1  0.46657262  0.83522022  0.58617127  1
  H  H179  1  0.41809022  0.82045898  0.60052981  1
  H  H180  1  0.41884595  0.83815658  0.64319664  1
  H  H181  1  0.46435467  0.81432799  0.56143637  1
  H  H182  1  0.45848925  0.83001022  0.54234887  1
  H  H183  1  0.43610592  0.83467870  0.47924570  1
  H  H184  1  0.45456226  0.83795029  0.49525736  1
  H  H185  1  0.43803034  0.83500064  0.51815874  1
  H  H186  1  0.45895987  0.79276374  0.57022448  1
  H  H187  1  0.47056178  0.78458738  0.54484227  1
  H  H188  1  0.45285275  0.77412015  0.55702902  1
  H  H189  1  0.42542732  0.78303381  0.43448535  1
  H  H190  1  0.42181210  0.76842035  0.46197027  1
  H  H191  1  0.43940785  0.77146305  0.44254163  1
  H  H192  1  0.44796948  0.76097700  0.48174044  1
  H  H193  1  0.45215212  0.76259893  0.52041545  1
  H  H194  1  0.45215169  0.74091631  0.50394896  1
  H  H195  1  0.44971007  0.71351634  0.50096611  1
  H  H196  1  0.40045235  0.70954576  0.51389034  1
  H  H197  1  0.40333929  0.73777602  0.51647120  1
  H  H198  1  0.41273438  0.68496104  0.50781272  1
  H  H199  1  0.44788636  0.69244115  0.49694946  1
  H  H200  1  0.41881927  0.80281906  0.44198957  1
  H  H201  1  0.42574376  0.82176408  0.45338990  1
  H  H202  1  0.41188337  0.81967112  0.41326808  1
  H  H203  1  0.40598543  0.83749587  0.37477472  1
  H  H204  1  0.45359187  0.84361404  0.34610303  1
  H  H205  1  0.45917196  0.82602556  0.38538679  1
  H  H206  1  0.41422929  0.85509208  0.33156645  1
  H  H207  1  0.44881086  0.85673522  0.31660377  1
  H  H208  1  0.35583623  0.52862222  0.47138158  1
  H  H209  1  0.38511260  0.54274752  0.45361413  1
  H  H210  1  0.36844977  0.51799089  0.52328840  1
  H  H211  1  0.36456887  0.54483309  0.55355034  1
  H  H212  1  0.38138224  0.56973925  0.48346136  1
  H  H213  1  0.39383374  0.55885011  0.53530714  1
  H  H214  1  0.52672069  0.35485045  0.52667142  1
  H  H215  1  0.54044544  0.38371281  0.54755947  1
  H  H216  1  0.51774911  0.36852957  0.47420241  1
  H  H217  1  0.54566415  0.36504245  0.44690692  1
  H  H218  1  0.56827740  0.38029577  0.52063736  1
  H  H219  1  0.55920372  0.39382957  0.46850996  1
  H  H220  1  0.64612332  0.46739888  0.45927461  1
  H  H221  1  0.61599719  0.45143623  0.45832997  1
  H  H222  1  0.63839959  0.48588962  0.50576978  1
  H  H223  1  0.64628059  0.46491942  0.54804757  1
  H  H224  1  0.62376186  0.43037956  0.50025358  1
  H  H225  1  0.61608131  0.44896109  0.54652051  1
  H  H226  1  0.43248701  0.62504195  0.47274371  1
  H  H227  1  0.46097955  0.62407513  0.44594870  1
  H  H228  1  0.44157544  0.60947126  0.52235498  1
  H  H229  1  0.45380212  0.63727144  0.54930573  1
  H  H230  1  0.47340937  0.65208504  0.47238245  1
  H  H231  1  0.48221509  0.63626613  0.52220420  1
  H  H232  1  0.07944876  0.53531823  0.89788850  1
  H  H233  1  0.09741642  0.54555878  0.85908230  1
  H  H234  1  0.06511238  0.52392585  0.79295017  1
  H  H235  1  0.04759740  0.51399357  0.83275612  1
  H  H236  1  0.07978501  0.53137833  0.76119445  1
  H  H237  1  0.09772590  0.54108378  0.72217887  1
  H  H238  1  0.12980736  0.56262242  0.78708710  1
  H  H239  1  0.11217632  0.55312522  0.82682825  1
  H  H240  1  0.50160395  0.07032753  0.86347216  1
  H  H241  1  0.51091774  0.08807998  0.82371203  1
  H  H242  1  0.55524289  0.07262744  0.82879634  1
  H  H243  1  0.54538915  0.05504859  0.86849771  1
  H  H244  1  0.56301209  0.08735155  0.79707750  1
  H  H245  1  0.57225745  0.10526623  0.75764715  1
  H  H246  1  0.52827779  0.12027161  0.75311015  1
  H  H247  1  0.51862391  0.10251670  0.79242844  1
  H  H248  1  0.92428984  0.46929857  0.10273839  1
  H  H249  1  0.90625660  0.45921046  0.14154999  1
  H  H250  1  0.94319150  0.46841413  0.20633561  1
  H  H251  1  0.96069874  0.47837946  0.16654783  1
  H  H252  1  0.92864717  0.46091816  0.23831178  1
  H  H253  1  0.91063638  0.45162765  0.27745080  1
  H  H254  1  0.87404380  0.44253483  0.21345632  1
  H  H255  1  0.89171168  0.45174726  0.17370800  1
  H  H256  1  0.49515825  0.94111806  0.14879349  1
  H  H257  1  0.48598571  0.92333803  0.18865594  1
  H  H258  1  0.43908316  0.92408244  0.15948708  1
  H  H259  1  0.44880236  0.94182837  0.12002765  1
  H  H260  1  0.43151560  0.90944789  0.19108197  1
  H  H261  1  0.42219482  0.89157618  0.23060099  1
  H  H262  1  0.46845487  0.89068154  0.25960778  1
  H  H263  1  0.47825480  0.90852817  0.22043810  1
  H  H264  1  0.54567227  0.06157248  0.12194608  1
  H  H265  1  0.55611326  0.07929736  0.16093605  1
  H  H266  1  0.50967307  0.08188360  0.18958693  1
  H  H267  1  0.49982600  0.06406324  0.15021866  1
  H  H268  1  0.51771917  0.09638312  0.22101529  1
  H  H269  1  0.52771894  0.11400991  0.26018443  1
  H  H270  1  0.57387384  0.11187075  0.23280870  1
  H  H271  1  0.56427288  0.09414038  0.19325164  1
  H  H272  1  0.04507746  0.53115883  0.15916644  1
  H  H273  1  0.06249834  0.54079505  0.19931926  1
  H  H274  1  0.10047062  0.52794624  0.14912302  1
  H  H275  1  0.08258936  0.51846124  0.10950422  1
  H  H276  1  0.11461185  0.53573619  0.18065813  1
  H  H277  1  0.13216297  0.54527481  0.22052836  1
  H  H278  1  0.09484925  0.55813592  0.27065977  1
  H  H279  1  0.07689919  0.54872980  0.23122084  1
  H  H280  1  0.92567410  0.48682898  0.88224596  1
  H  H281  1  0.90777523  0.47748715  0.84255059  1
  H  H282  1  0.94106418  0.45072690  0.80839305  1
  H  H283  1  0.95853632  0.46036717  0.84838649  1
  H  H284  1  0.92656830  0.44288426  0.77631970  1
  H  H285  1  0.90870364  0.43336816  0.73686422  1
  H  H286  1  0.87575416  0.45977813  0.77060689  1
  H  H287  1  0.89329020  0.46953271  0.81036401  1
  H  H288  1  0.45006477  0.94504873  0.87498245  1
  H  H289  1  0.43977567  0.92722960  0.83593051  1
  H  H290  1  0.48620713  0.92016034  0.81534539  1
  H  H291  1  0.49589413  0.93809649  0.85457587  1
  H  H292  1  0.47858849  0.90603278  0.78440387  1
  H  H293  1  0.46902396  0.88825586  0.74524394  1
  H  H294  1  0.42265678  0.89441616  0.76398625  1
  H  H295  1  0.43182160  0.91234638  0.80353305  1
  C  C296  1  0.02368818  0.49048825  0.96170490  1
  C  C297  1  0.00705031  0.49350853  0.96035850  1
  C  C298  1  0.99509175  0.47902212  0.96115039  1
  C  C299  1  0.97401337  0.49282702  0.98055430  1
  C  C300  1  0.03255241  0.51396126  0.99034583  1
  C  C301  1  0.03513378  0.51520297  0.93825711  1
  C  C302  1  0.97760269  0.48990210  0.92557652  1
  C  C303  1  0.98245660  0.50789710  0.03857310  1
  C  C304  1  0.99908100  0.50486796  0.03998389  1
  C  C305  1  0.01103243  0.51934684  0.03910011  1
  C  C306  1  0.03213085  0.50551911  0.01973028  1
  C  C307  1  0.97361788  0.48440458  0.00998082  1
  C  C308  1  0.97104224  0.48321290  0.06210562  1
  C  C309  1  0.02841001  0.50836131  0.07458822  1
  C  C310  1  0.48905108  0.02279204  0.03888778  1
  C  C311  1  0.49208219  0.00618535  0.04000655  1
  C  C312  1  0.47757265  0.99424357  0.03896109  1
  C  C313  1  0.49138693  0.97318755  0.01945501  1
  C  C314  1  0.51251179  0.03167629  0.01032224  1
  C  C315  1  0.51390752  0.03420737  0.06243102  1
  C  C316  1  0.48850861  0.97678300  0.07440119  1
  C  C317  1  0.50638257  0.98161551  0.96147711  1
  C  C318  1  0.50334881  0.99821436  0.96039407  1
  C  C319  1  0.51785528  0.01014792  0.96144037  1
  C  C320  1  0.50402208  0.03121100  0.98092243  1
  C  C321  1  0.48289849  0.97275127  0.99006923  1
  C  C322  1  0.48154127  0.97027677  0.93798482  1
  C  C323  1  0.50688838  0.02755782  0.92601661  1
  C  C324  1  0.50890821  0.49843264  0.48696319  1
  C  C325  1  0.49933200  0.50909633  0.48708000  1
  C  C326  1  0.51882305  0.47369816  0.48899626  1
  C  C327  1  0.53107534  0.48484306  0.49567865  1
  C  C328  1  0.48853816  0.53327706  0.49163585  1
  C  C329  1  0.47645508  0.52157930  0.49596412  1
  C  C330  1  0.51890082  0.42623792  0.49370472  1
  C  C331  1  0.52596377  0.43567427  0.51709113  1
  C  C332  1  0.50925834  0.44765648  0.47216564  1
  C  C333  1  0.51865310  0.45741581  0.49225475  1
  C  C334  1  0.52641624  0.45116551  0.51587210  1
  C  C335  1  0.50951290  0.43217486  0.47264396  1
  C  C336  1  0.57742863  0.47904517  0.50402096  1
  C  C337  1  0.56760939  0.46941230  0.48431642  1
  C  C338  1  0.55253667  0.47098503  0.48130485  1
  C  C339  1  0.54676772  0.48225012  0.49841681  1
  C  C340  1  0.55663140  0.49213545  0.51753546  1
  C  C341  1  0.57171841  0.49034239  0.52073422  1
  C  C342  1  0.48422356  0.58016405  0.49449398  1
  C  C343  1  0.47562592  0.56968684  0.51452442  1
  C  C344  1  0.47709403  0.55453160  0.51457995  1
  C  C345  1  0.48777096  0.54935553  0.49514184  1
  C  C346  1  0.49819238  0.56025928  0.47896563  1
  C  C347  1  0.49635749  0.57544075  0.47839788  1
  C  C348  1  0.42900263  0.52370827  0.50329177  1
  C  C349  1  0.43570194  0.51289187  0.51984935  1
  C  C350  1  0.45109903  0.51230856  0.51682847  1
  C  C351  1  0.46037390  0.52304186  0.49833142  1
  C  C352  1  0.45346170  0.53300790  0.47979387  1
  C  C353  1  0.43811118  0.53341916  0.48264995  1
  C  C354  1  0.14448908  0.56408236  0.31638611  1
  C  C355  1  0.14745516  0.55280590  0.33612347  1
  C  C356  1  0.15796116  0.55445253  0.36080460  1
  C  C357  1  0.15930676  0.54125329  0.37801707  1
  C  C358  1  0.16927640  0.54186914  0.40189287  1
  C  C359  1  0.17821674  0.55584650  0.40954456  1
  C  C360  1  0.17723576  0.56916062  0.39319193  1
  C  C361  1  0.16721441  0.56852344  0.36915981  1
  C  C362  1  0.18721295  0.54326507  0.45177858  1
  C  C363  1  0.19723502  0.54795967  0.47809840  1
  C  C364  1  0.21317534  0.54778760  0.47591625  1
  C  C365  1  0.22282513  0.55451254  0.49900775  1
  C  C366  1  0.21664487  0.56117135  0.52385936  1
  C  C367  1  0.20068591  0.56149790  0.52510579  1
  C  C368  1  0.19077266  0.55480339  0.50238571  1
  C  C369  1  0.17372496  0.55496717  0.50241966  1
  C  C370  1  0.21968089  0.54016386  0.45014054  1
  C  C371  1  0.22767445  0.56809035  0.54747713  1
  C  C372  1  0.23985388  0.55472300  0.49737832  1
  C  C373  1  0.26357963  0.57151283  0.49060995  1
  C  C374  1  0.27093392  0.55879168  0.49438336  1
  C  C375  1  0.28686588  0.56053950  0.49573907  1
  C  C376  1  0.29630700  0.57502313  0.49298060  1
  C  C377  1  0.28841429  0.58779799  0.48845322  1
  C  C378  1  0.27241917  0.58604498  0.48709530  1
  C  C379  1  0.31293322  0.57608785  0.49449187  1
  C  C380  1  0.32001407  0.56333448  0.49904064  1
  C  C381  1  0.19426911  0.56898660  0.55106643  1
  C  C382  1  0.18279335  0.56206061  0.59777399  1
  C  C383  1  0.17953637  0.57696747  0.60101258  1
  C  C384  1  0.16958867  0.58014363  0.62311056  1
  C  C385  1  0.16258924  0.56860375  0.64311339  1
  C  C386  1  0.16648045  0.55368805  0.63945925  1
  C  C387  1  0.17651973  0.55055240  0.61741613  1
  C  C388  1  0.15208387  0.57168967  0.66601445  1
  C  C389  1  0.14526678  0.56035195  0.68528179  1
  C  C390  1  0.56243514  0.14375667  0.31764966  1
  C  C391  1  0.57531087  0.14893012  0.33488741  1
  C  C392  1  0.57539945  0.15931458  0.35972630  1
  C  C393  1  0.58897415  0.16413807  0.37666438  1
  C  C394  1  0.58919644  0.17395038  0.40078238  1
  C  C395  1  0.57578696  0.17939776  0.40900352  1
  C  C396  1  0.56225449  0.17508461  0.39274310  1
  C  C397  1  0.56202633  0.16522196  0.36866408  1
  C  C398  1  0.58859877  0.19234240  0.45182882  1
  C  C399  1  0.58380800  0.20111285  0.47778610  1
  C  C400  1  0.58427990  0.21715417  0.47554949  1
  C  C401  1  0.57787492  0.22495337  0.49852257  1
  C  C402  1  0.57106175  0.21687702  0.52354528  1
  C  C403  1  0.57052228  0.20083025  0.52498762  1
  C  C404  1  0.57691188  0.19276253  0.50244594  1
  C  C405  1  0.57634927  0.17564783  0.50303905  1
  C  C406  1  0.59219256  0.22589387  0.44981586  1
  C  C407  1  0.56437025  0.22587003  0.54705843  1
  C  C408  1  0.57806803  0.24197465  0.49690736  1
  C  C409  1  0.56111542  0.26038449  0.49053601  1
  C  C410  1  0.57367682  0.27203452  0.49465973  1
  C  C411  1  0.57151880  0.28726560  0.49599435  1
  C  C412  1  0.55671289  0.29142986  0.49289552  1
  C  C413  1  0.54425939  0.27931634  0.48806477  1
  C  C414  1  0.54638337  0.26409676  0.48677571  1
  C  C415  1  0.55384704  0.30705488  0.49427754  1
  C  C416  1  0.56442996  0.32026945  0.49861530  1
  C  C417  1  0.56314426  0.19237591  0.55138525  1
  C  C418  1  0.56982701  0.18307877  0.59795993  1
  C  C419  1  0.55449924  0.17605235  0.60069947  1
  C  C420  1  0.55048579  0.16508022  0.62243779  1
  C  C421  1  0.56146291  0.16095924  0.64280451  1
  C  C422  1  0.57690143  0.16855091  0.63975728  1
  C  C423  1  0.58095965  0.17957274  0.61783016  1
  C  C424  1  0.55652766  0.14959594  0.66524230  1
  C  C425  1  0.56569140  0.14434157  0.68683304  1
  C  C426  1  0.86096390  0.43513455  0.68309712  1
  C  C427  1  0.85571904  0.42232526  0.66593007  1
  C  C428  1  0.84533091  0.42239153  0.64100488  1
  C  C429  1  0.84035992  0.40889429  0.62415129  1
  C  C430  1  0.83052604  0.40882114  0.59995119  1
  C  C431  1  0.82524027  0.42231207  0.59156970  1
  C  C432  1  0.82970496  0.43577763  0.60773100  1
  C  C433  1  0.83958466  0.43585837  0.63190286  1
  C  C434  1  0.81223100  0.40962813  0.54882569  1
  C  C435  1  0.80350777  0.41448958  0.52269346  1
  C  C436  1  0.78748328  0.41428617  0.52491238  1
  C  C437  1  0.77975657  0.42086105  0.50185247  1
  C  C438  1  0.78788071  0.42758325  0.47681028  1
  C  C439  1  0.80392173  0.42785214  0.47539629  1
  C  C440  1  0.81192603  0.42131335  0.49806323  1
  C  C441  1  0.82904798  0.42165391  0.49765981  1
  C  C442  1  0.77868621  0.40652824  0.55073484  1
  C  C443  1  0.77893314  0.43448594  0.45326924  1
  C  C444  1  0.76276124  0.42097327  0.50349533  1
  C  C445  1  0.74469206  0.43819725  0.51002513  1
  C  C446  1  0.73284377  0.42581423  0.50596642  1
  C  C447  1  0.71765190  0.42820645  0.50462793  1
  C  C448  1  0.71373144  0.44307248  0.50768407  1
  C  C449  1  0.72604028  0.45533610  0.51250036  1
  C  C450  1  0.74122264  0.45297806  0.51379042  1
  C  C451  1  0.69815653  0.44616701  0.50628043  1
  C  C452  1  0.68477806  0.43578615  0.50198135  1
  C  C453  1  0.81245830  0.43513447  0.44899679  1
  C  C454  1  0.82168612  0.42834819  0.40260818  1
  C  C455  1  0.82894784  0.44356731  0.39976925  1
  C  C456  1  0.83994088  0.44743418  0.37806420  1
  C  C457  1  0.84385766  0.43642727  0.35780367  1
  C  C458  1  0.83603793  0.42110069  0.36096074  1
  C  C459  1  0.82499972  0.41718403  0.38286725  1
  C  C460  1  0.85525862  0.44128182  0.33539178  1
  C  C461  1  0.86039984  0.43220388  0.31374373  1
  C  C462  1  0.43363259  0.86037722  0.68372564  1
  C  C463  1  0.44490244  0.85756509  0.66397604  1
  C  C464  1  0.44333579  0.84707264  0.63931510  1
  C  C465  1  0.45655962  0.84594197  0.62214143  1
  C  C466  1  0.45606954  0.83602050  0.59833213  1
  C  C467  1  0.44218994  0.82687535  0.59064354  1
  C  C468  1  0.42884343  0.82765360  0.60691604  1
  C  C469  1  0.42935850  0.83762292  0.63088009  1
  C  C470  1  0.45488001  0.81792410  0.54863332  1
  C  C471  1  0.45025286  0.80785471  0.52238773  1
  C  C472  1  0.45072124  0.79197987  0.52455161  1
  C  C473  1  0.44412420  0.78229913  0.50142514  1
  C  C474  1  0.43737717  0.78841199  0.47641662  1
  C  C475  1  0.43680988  0.80429752  0.47510195  1
  C  C476  1  0.44334714  0.81422684  0.49786739  1
  C  C477  1  0.44296980  0.83120348  0.49757592  1
  C  C478  1  0.45857398  0.78558121  0.55034513  1
  C  C479  1  0.43064735  0.77740744  0.45268276  1
  C  C480  1  0.44424102  0.76533085  0.50300925  1
  C  C481  1  0.42780616  0.74129690  0.50939333  1
  C  C482  1  0.44068700  0.73419819  0.50562268  1
  C  C483  1  0.43920779  0.71830441  0.50430804  1
  C  C484  1  0.42485091  0.70860833  0.50710240  1
  C  C485  1  0.41190146  0.71625523  0.51154342  1
  C  C486  1  0.41338014  0.73220943  0.51285783  1
  C  C487  1  0.42402470  0.69200432  0.50571923  1
  C  C488  1  0.43687046  0.68504950  0.50127382  1
  C  C489  1  0.42926071  0.81062338  0.44892250  1
  C  C490  1  0.43608241  0.82215508  0.40226162  1
  C  C491  1  0.42106608  0.82521723  0.39890556  1
  C  C492  1  0.41772470  0.83514353  0.37676439  1
  C  C493  1  0.42919684  0.84227642  0.35680519  1
  C  C494  1  0.44422772  0.83857664  0.36055150  1
  C  C495  1  0.44753489  0.82857720  0.38267641  1
  C  C496  1  0.42594235  0.85273385  0.33383319  1
  C  C497  1  0.43723020  0.85968182  0.31464193  1
  C  C498  1  0.36410031  0.53553805  0.48567405  1
  C  C499  1  0.38045951  0.54326357  0.47576326  1
  C  C500  1  0.38767161  0.53706551  0.50463371  1
  C  C501  1  0.37116341  0.52952952  0.51447366  1
  C  C502  1  0.36158144  0.55078493  0.50224739  1
  C  C503  1  0.36890334  0.54451971  0.53111667  1
  C  C504  1  0.37824345  0.55826582  0.49236250  1
  C  C505  1  0.38526795  0.55223048  0.52116253  1
  C  C506  1  0.40110840  0.53037830  0.50607122  1
  C  C507  1  0.41349541  0.52581331  0.50639406  1
  C  C508  1  0.34812086  0.55770781  0.50067567  1
  C  C509  1  0.33582359  0.56265942  0.49936789  1
  C  C510  1  0.53401189  0.36338292  0.51358456  1
  C  C511  1  0.54154538  0.37947245  0.52523556  1
  C  C512  1  0.53631637  0.38715327  0.49614397  1
  C  C513  1  0.52901890  0.37087177  0.48447247  1
  C  C514  1  0.54972670  0.36107143  0.49853804  1
  C  C515  1  0.54451010  0.36901754  0.46940535  1
  C  C516  1  0.55707799  0.37741897  0.51026578  1
  C  C517  1  0.55198739  0.38508611  0.48127167  1
  C  C518  1  0.52861866  0.39980609  0.49379137  1
  C  C519  1  0.52261358  0.41132099  0.49221627  1
  C  C520  1  0.55570056  0.34723532  0.49907116  1
  C  C521  1  0.55985190  0.33460557  0.49892450  1
  C  C522  1  0.63960751  0.46323046  0.47881244  1
  C  C523  1  0.62278370  0.45440352  0.47821710  1
  C  C524  1  0.61830450  0.46488912  0.50402308  1
  C  C525  1  0.63526679  0.47353491  0.50460127  1
  C  C526  1  0.64435699  0.45135852  0.50215364  1
  C  C527  1  0.63967556  0.46186718  0.52798611  1
  C  C528  1  0.62724833  0.44269157  0.50150458  1
  C  C529  1  0.62289324  0.45300266  0.52725287  1
  C  C530  1  0.60503168  0.47169011  0.50568085  1
  C  C531  1  0.59277510  0.47644213  0.50644659  1
  C  C532  1  0.65803126  0.44507206  0.50167102  1
  C  C533  1  0.67053887  0.44062062  0.50172497  1
  C  C534  1  0.44350015  0.62783848  0.48383976  1
  C  C535  1  0.45935847  0.62722876  0.46882097  1
  C  C536  1  0.46465454  0.61823225  0.49616788  1
  C  C537  1  0.44865140  0.61895652  0.51124196  1
  C  C538  1  0.44998428  0.64371752  0.49870802  1
  C  C539  1  0.45529686  0.63457686  0.52615042  1
  C  C540  1  0.46612400  0.64279856  0.48363374  1
  C  C541  1  0.47114319  0.63401689  0.51115131  1
  C  C542  1  0.47293380  0.60589183  0.49391635  1
  C  C543  1  0.47963582  0.59480125  0.49246946  1
  C  C544  1  0.44286303  0.65707138  0.50006119  1
  C  C545  1  0.43777319  0.66928955  0.50120788  1
  C  C546  1  0.04432876  0.51238008  0.91271719  1
  C  C547  1  0.05269224  0.51623468  0.89136194  1
  C  C548  1  0.06277965  0.52272730  0.86828316  1
  C  C549  1  0.07666913  0.53250016  0.87471092  1
  C  C550  1  0.08670562  0.53845378  0.85242274  1
  C  C551  1  0.08326235  0.53541320  0.82202431  1
  C  C552  1  0.06880240  0.52645841  0.81573808  1
  C  C553  1  0.05882397  0.52053388  0.83819812  1
  C  C554  1  0.09410695  0.54137956  0.79803912  1
  C  C555  1  0.09061950  0.53831243  0.76770151  1
  C  C556  1  0.10075671  0.54386550  0.74527131  1
  C  C557  1  0.11510331  0.55305532  0.75121519  1
  C  C558  1  0.11868292  0.55590014  0.78150473  1
  C  C559  1  0.10857536  0.55036545  0.80405537  1
  C  C560  1  0.12552533  0.55839078  0.72801391  1
  C  C561  1  0.13467233  0.56183461  0.70750666  1
  C  C562  1  0.51332548  0.04186301  0.91210363  1
  C  C563  1  0.51743421  0.05161485  0.89311054  1
  C  C564  1  0.52294277  0.06177961  0.86974289  1
  C  C565  1  0.51344181  0.07112912  0.85589714  1
  C  C566  1  0.51884143  0.08111236  0.83319079  1
  C  C567  1  0.53409348  0.08226710  0.82261272  1
  C  C568  1  0.54346953  0.07252113  0.83602337  1
  C  C569  1  0.53802887  0.06255954  0.85869135  1
  C  C570  1  0.53987329  0.09310212  0.79861846  1
  C  C571  1  0.55508875  0.09439805  0.78782508  1
  C  C572  1  0.56044383  0.10456938  0.76530890  1
  C  C573  1  0.55098369  0.11417455  0.75179241  1
  C  C574  1  0.53582286  0.11292657  0.76286242  1
  C  C575  1  0.53044022  0.10279186  0.78530780  1
  C  C576  1  0.55603230  0.12456546  0.72858720  1
  C  C577  1  0.55991843  0.13373045  0.70833698  1
  C  C578  1  0.96192789  0.48613084  0.08770192  1
  C  C579  1  0.95357412  0.48237143  0.10911501  1
  C  C580  1  0.94346050  0.47596464  0.13221681  1
  C  C581  1  0.92813686  0.46951525  0.12581963  1
  C  C582  1  0.91804922  0.46358095  0.14800292  1
  C  C583  1  0.92282338  0.46323415  0.17806355  1
  C  C584  1  0.93854301  0.46868950  0.18394571  1
  C  C585  1  0.94856714  0.47462202  0.16157645  1
  C  C586  1  0.91196580  0.45739039  0.20204190  1
  C  C587  1  0.91672760  0.45700896  0.23207850  1
  C  C588  1  0.90652102  0.45180609  0.25457346  1
  C  C589  1  0.89071286  0.44672321  0.24897254  1
  C  C590  1  0.88606492  0.44672345  0.21880452  1
  C  C591  1  0.89624442  0.45192109  0.19625413  1
  C  C592  1  0.88022454  0.44194785  0.27215196  1
  C  C593  1  0.87102598  0.43805039  0.29231688  1
  C  C594  1  0.48210196  0.96246462  0.08835705  1
  C  C595  1  0.47806865  0.95270460  0.10739152  1
  C  C596  1  0.47272476  0.94239892  0.13068865  1
  C  C597  1  0.48286266  0.93708954  0.15114950  1
  C  C598  1  0.47750906  0.92704349  0.17383854  1
  C  C599  1  0.46160500  0.92174739  0.17781877  1
  C  C600  1  0.45146383  0.92744473  0.15767980  1
  C  C601  1  0.45685352  0.93747281  0.13504105  1
  C  C602  1  0.45584184  0.91086905  0.20185325  1
  C  C603  1  0.43995695  0.90560678  0.20581142  1
  C  C604  1  0.43451677  0.89543569  0.22833804  1
  C  C605  1  0.44445208  0.88977756  0.24867232  1
  C  C606  1  0.46036871  0.89493040  0.24452215  1
  C  C607  1  0.46586619  0.90509082  0.22208880  1
  C  C608  1  0.43889598  0.87938324  0.27178333  1
  C  C609  1  0.43552542  0.87022839  0.29232973  1
  C  C610  1  0.51136325  0.04343507  0.08808425  1
  C  C611  1  0.51534846  0.05167559  0.10955655  1
  C  C612  1  0.52183823  0.06159782  0.13292762  1
  C  C613  1  0.53782646  0.06613196  0.13692520  1
  C  C614  1  0.54367807  0.07622881  0.15928647  1
  C  C615  1  0.53393439  0.08245292  0.17926191  1
  C  C616  1  0.51795327  0.07767408  0.17522114  1
  C  C617  1  0.51218442  0.06756220  0.15286213  1
  C  C618  1  0.53999581  0.09332166  0.20320854  1
  C  C619  1  0.53013902  0.09946402  0.22300415  1
  C  C620  1  0.53576973  0.10953623  0.24553561  1
  C  C621  1  0.55172050  0.11427701  0.25033751  1
  C  C622  1  0.56150956  0.10832661  0.23023918  1
  C  C623  1  0.55592160  0.09823732  0.20765250  1
  C  C624  1  0.55752302  0.12441973  0.27370042  1
  C  C625  1  0.56161059  0.13328702  0.29436405  1
  C  C626  1  0.04273598  0.51478104  0.08853124  1
  C  C627  1  0.05259561  0.51887318  0.10738619  1
  C  C628  1  0.06259892  0.52427302  0.13110114  1
  C  C629  1  0.05730147  0.53058520  0.15721902  1
  C  C630  1  0.06728773  0.53600075  0.17991276  1
  C  C631  1  0.08322365  0.53538475  0.17803952  1
  C  C632  1  0.08841413  0.52886493  0.15202722  1
  C  C633  1  0.07838646  0.52346792  0.12935816  1
  C  C634  1  0.09398489  0.54122365  0.20211339  1
  C  C635  1  0.10988795  0.54056682  0.20009417  1
  C  C636  1  0.11996759  0.54594719  0.22267417  1
  C  C637  1  0.11493481  0.55229444  0.24902036  1
  C  C638  1  0.09907161  0.55315607  0.25078675  1
  C  C639  1  0.08895011  0.54778906  0.22822052  1
  C  C640  1  0.12525219  0.55725528  0.27237010  1
  C  C641  1  0.13429286  0.56051930  0.29311859  1
  C  C642  1  0.96328768  0.48343895  0.91147484  1
  C  C643  1  0.95344595  0.47946665  0.89248784  1
  C  C644  1  0.94330714  0.47407601  0.86887468  1
  C  C645  1  0.92884194  0.47877475  0.86596786  1
  C  C646  1  0.91878148  0.47342419  0.84321372  1
  C  C647  1  0.92255774  0.46304097  0.82157889  1
  C  C648  1  0.93725031  0.45857879  0.82424628  1
  C  C649  1  0.94727293  0.46395294  0.84698964  1
  C  C650  1  0.91173549  0.45717985  0.79741251  1
  C  C651  1  0.91548719  0.44681090  0.77577239  1
  C  C652  1  0.90534466  0.44128172  0.75321507  1
  C  C653  1  0.89064560  0.44557323  0.75044115  1
  C  C654  1  0.88693693  0.45602717  0.77201116  1
  C  C655  1  0.89704137  0.46158007  0.79461933  1
  C  C656  1  0.88047223  0.43994196  0.72697851  1
  C  C657  1  0.87150297  0.43588067  0.70637857  1
  C  C658  1  0.48422598  0.96111581  0.91237645  1
  C  C659  1  0.48027844  0.95284511  0.89094014  1
  C  C660  1  0.47385806  0.94289906  0.86762534  1
  C  C661  1  0.45791860  0.93953692  0.86166012  1
  C  C662  1  0.45216286  0.92938456  0.83938781  1
  C  C663  1  0.46199461  0.92193830  0.82170468  1
  C  C664  1  0.47792029  0.92543099  0.82785316  1
  C  C665  1  0.48359003  0.93560767  0.85009234  1
  C  C666  1  0.45612669  0.91103707  0.79785441  1
  C  C667  1  0.46624228  0.90379287  0.78056208  1
  C  C668  1  0.46090322  0.89363340  0.75816199  1
  C  C669  1  0.44505987  0.88987821  0.75113943  1
  C  C670  1  0.43495370  0.89705313  0.76859023  1
  C  C671  1  0.44027285  0.90725380  0.79108244  1
  C  C672  1  0.43999520  0.87952941  0.72790281  1
  C  C673  1  0.43699579  0.87052555  0.70710421  1
  S  S674  1  0.50123182  0.47916491  0.48258691  1
  S  S675  1  0.52849060  0.50374178  0.49337733  1
  S  S676  1  0.50656181  0.52857175  0.48635359  1
  S  S677  1  0.47960787  0.50308751  0.48978939  1
  N  N678  1  0.03472594  0.50472015  0.96404141  1
  N  N679  1  0.97910813  0.48287961  0.95638123  1
  N  N680  1  0.97143359  0.49365961  0.03627121  1
  N  N681  1  0.02698708  0.51545003  0.04385769  1
  N  N682  1  0.50330899  0.03383492  0.03672146  1
  N  N683  1  0.48144037  0.97828844  0.04362568  1
  N  N684  1  0.49211226  0.97060509  0.96369598  1
  N  N685  1  0.51397068  0.02608861  0.95677546  1
  O  O686  1  0.18817488  0.55684200  0.43274636  1
  O  O687  1  0.19217804  0.55834400  0.57598504  1
  O  O688  1  0.24795164  0.57008943  0.49041692  1
  O  O689  1  0.57527099  0.18919534  0.43208391  1
  O  O690  1  0.57410334  0.19339558  0.57589011  1
  O  O691  1  0.56270584  0.24529942  0.49011966  1
  O  O692  1  0.81546695  0.42295217  0.56834235  1
  O  O693  1  0.81130763  0.42421252  0.42459124  1
  O  O694  1  0.75974432  0.43637258  0.51036324  1
  O  O695  1  0.44131184  0.81690169  0.56760099  1
  O  O696  1  0.43995513  0.81284724  0.42419131  1
  O  O697  1  0.42895718  0.75687920  0.50965604  1
