# generated using pymatgen
data_SiH270(C28O)12
_symmetry_space_group_name_H-M   'P 1'
_cell_length_a   47.12520300
_cell_length_b   44.97568606
_cell_length_c   66.53612172
_cell_angle_alpha   89.47154164
_cell_angle_beta   91.02526337
_cell_angle_gamma   89.97926881
_symmetry_Int_Tables_number   1
_chemical_formula_structural   SiH270(C28O)12
_chemical_formula_sum   'Si1 H270 C336 O12'
_cell_volume   140993.93960005
_cell_formula_units_Z   1
loop_
 _symmetry_equiv_pos_site_id
 _symmetry_equiv_pos_as_xyz
  1  'x, y, z'
loop_
 _atom_site_type_symbol
 _atom_site_label
 _atom_site_symmetry_multiplicity
 _atom_site_fract_x
 _atom_site_fract_y
 _atom_site_fract_z
 _atom_site_occupancy
  Si  Si0  1  0.53129571  0.53302507  0.51250676  1
  H  H1  1  0.97607758  0.04373949  0.02396918  1
  H  H2  1  0.06515944  0.02595866  0.01584154  1
  H  H3  1  0.02349526  0.08295051  0.98897821  1
  H  H4  1  0.01995212  0.98757155  0.99621777  1
  H  H5  1  0.02897260  0.01892650  0.07437742  1
  H  H6  1  0.01958041  0.02714193  0.93720223  1
  H  H7  1  0.63461817  0.54004368  0.55845849  1
  H  H8  1  0.52794263  0.63401462  0.45918788  1
  H  H9  1  0.49822212  0.55031624  0.48076896  1
  H  H10  1  0.52358735  0.43823978  0.45487539  1
  H  H11  1  0.43368305  0.53586903  0.56287126  1
  H  H12  1  0.57656562  0.58761448  0.50493940  1
  H  H13  1  0.48467600  0.47870624  0.50586379  1
  H  H14  1  0.56196582  0.51499107  0.48077724  1
  H  H15  1  0.51240718  0.50036612  0.54388113  1
  H  H16  1  0.48041836  0.58293940  0.51763913  1
  H  H17  1  0.58549326  0.48671425  0.51763814  1
  H  H18  1  0.54811388  0.56294673  0.54665626  1
  H  H19  1  0.87883839  0.43155337  0.67392612  1
  H  H20  1  0.87667761  0.36796077  0.65649252  1
  H  H21  1  0.91469629  0.33440595  0.66375570  1
  H  H22  1  0.96198450  0.32232861  0.67733770  1
  H  H23  1  0.96929724  0.41088427  0.70108547  1
  H  H24  1  0.92194828  0.42338942  0.68716806  1
  H  H25  1  0.01047602  0.32414894  0.68287003  1
  H  H26  1  0.99193924  0.31528633  0.70503119  1
  H  H27  1  0.01127876  0.31094252  0.75686601  1
  H  H28  1  0.00276608  0.29173157  0.73460076  1
  H  H29  1  0.99167304  0.32907459  0.73738470  1
  H  H30  1  0.03999194  0.34979108  0.67167678  1
  H  H31  1  0.06815096  0.32386586  0.66986835  1
  H  H32  1  0.07530148  0.36203323  0.67367576  1
  H  H33  1  0.11476140  0.33298297  0.75912955  1
  H  H34  1  0.12443343  0.35985415  0.74079859  1
  H  H35  1  0.13163989  0.32182419  0.73708340  1
  H  H36  1  0.13164834  0.33603330  0.70659372  1
  H  H37  1  0.11154461  0.34730660  0.68501702  1
  H  H38  1  0.15338099  0.35417155  0.68166572  1
  H  H39  1  0.19700615  0.37696479  0.67008704  1
  H  H40  1  0.18094343  0.45476871  0.70632047  1
  H  H41  1  0.13433306  0.43304807  0.71578641  1
  H  H42  1  0.22838844  0.44829507  0.68753944  1
  H  H43  1  0.23709288  0.38298963  0.67395726  1
  H  H44  1  0.07733595  0.33987967  0.77178136  1
  H  H45  1  0.04233565  0.32577956  0.77182593  1
  H  H46  1  0.06446625  0.32541186  0.80336949  1
  H  H47  1  0.05576883  0.30307835  0.83642325  1
  H  H48  1  0.07554025  0.21631128  0.81229749  1
  H  H49  1  0.08101674  0.23880260  0.77911500  1
  H  H50  1  0.05255323  0.25735781  0.85924550  1
  H  H51  1  0.05928455  0.20033956  0.83424611  1
  H  H52  1  0.65583680  0.87329848  0.34148463  1
  H  H53  1  0.70367207  0.88591640  0.37283853  1
  H  H54  1  0.73516996  0.92621088  0.36734783  1
  H  H55  1  0.75238732  0.96903490  0.34810032  1
  H  H56  1  0.68694371  0.95446377  0.30317431  1
  H  H57  1  0.66953687  0.91130032  0.32241238  1
  H  H58  1  0.77083935  -0.00323857  0.32154876  1
  H  H59  1  0.74496894  0.01598825  0.33534111  1
  H  H60  1  0.70496029  0.08182319  0.32772625  1
  H  H61  1  0.73271684  0.06363209  0.34092357  1
  H  H62  1  0.70525793  0.04254763  0.32943213  1
  H  H63  1  0.78378106  0.98774554  0.29449695  1
  H  H64  1  0.81202986  0.01359203  0.29308408  1
  H  H65  1  0.79409542  0.00172789  0.27096124  1
  H  H66  1  0.74187677  0.12608131  0.26528095  1
  H  H67  1  0.75110391  0.09959075  0.24690238  1
  H  H68  1  0.77764040  0.11686024  0.26178143  1
  H  H69  1  0.80177457  0.07790176  0.25529644  1
  H  H70  1  0.80586757  0.03874693  0.25785212  1
  H  H71  1  0.82911220  0.05814633  0.23436947  1
  H  H72  1  0.85332410  0.05418100  0.20269718  1
  H  H73  1  0.77262388  0.04824687  0.17091423  1
  H  H74  1  0.74845713  0.04623824  0.20366050  1
  H  H75  1  0.81985786  0.05092242  0.15119854  1
  H  H76  1  0.86601360  0.07703167  0.17932541  1
  H  H77  1  0.70825130  0.11707766  0.28082830  1
  H  H78  1  0.69836656  0.10662994  0.30536015  1
  H  H79  1  0.68044270  0.14812847  0.29259676  1
  H  H80  1  0.65226864  0.18762786  0.30817420  1
  H  H81  1  0.72640233  0.21468121  0.34295594  1
  H  H82  1  0.75400665  0.17405725  0.32793916  1
  H  H83  1  0.64824798  0.22909074  0.33113219  1
  H  H84  1  0.70353274  0.24665792  0.35444323  1
  H  H85  1  0.83628682  0.70288505  0.66149140  1
  H  H86  1  0.83136589  0.64960688  0.69132884  1
  H  H87  1  0.87104487  0.64270621  0.71520857  1
  H  H88  1  0.91984228  0.65405867  0.72653844  1
  H  H89  1  0.92649013  0.72045470  0.67945497  1
  H  H90  1  0.87823856  0.70788406  0.66715615  1
  H  H91  1  0.96764400  0.65956153  0.72620471  1
  H  H92  1  0.94924783  0.68706874  0.73970304  1
  H  H93  1  0.96540911  0.75735797  0.75902529  1
  H  H94  1  0.95752846  0.71957561  0.76301422  1
  H  H95  1  0.94670480  0.73729841  0.74029281  1
  H  H96  1  0.99488045  0.65655315  0.70369050  1
  H  H97  1  0.02225107  0.64295979  0.71982208  1
  H  H98  1  0.03046049  0.66174774  0.69710417  1
  H  H99  1  0.06766031  0.77124817  0.74442757  1
  H  H100  1  0.07786975  0.75604623  0.72103849  1
  H  H101  1  0.08593010  0.73712163  0.74380387  1
  H  H102  1  0.08687528  0.69735793  0.72511605  1
  H  H103  1  0.06716944  0.67306836  0.70926363  1
  H  H104  1  0.11413803  0.66858887  0.70488509  1
  H  H105  1  0.15819084  0.65993762  0.68718243  1
  H  H106  1  0.13966914  0.73465877  0.64785802  1
  H  H107  1  0.09496929  0.74316441  0.66578971  1
  H  H108  1  0.18253221  0.70741447  0.64222330  1
  H  H109  1  0.19764138  0.65472989  0.67078052  1
  H  H110  1  0.03059091  0.78991764  0.74698657  1
  H  H111  1  0.99497339  0.78385942  0.75367927  1
  H  H112  1  0.01248866  0.82624401  0.76575161  1
  H  H113  1  0.00253372  0.86442078  0.79076122  1
  H  H114  1  0.02361088  0.80186890  0.83837792  1
  H  H115  1  0.02992417  0.76240799  0.81319021  1
  H  H116  1  1.00487597  0.88127262  0.82717215  1
  H  H117  1  -0.00820531  0.82792472  0.85448503  1
  H  H118  1  0.38845560  0.82409348  0.32761991  1
  H  H119  1  0.33421034  0.81835490  0.35318670  1
  H  H120  1  0.30003784  0.85982164  0.34954011  1
  H  H121  1  0.28889198  0.91104747  0.33851370  1
  H  H122  1  0.37254854  0.91949315  0.31343635  1
  H  H123  1  0.38492010  0.86916344  0.32626490  1
  H  H124  1  0.29022821  0.96022620  0.33466939  1
  H  H125  1  0.28191410  0.94075145  0.31228619  1
  H  H126  1  0.27916370  0.95828789  0.26084933  1
  H  H127  1  0.26140203  0.94937665  0.28311774  1
  H  H128  1  0.29730458  0.93886207  0.28038987  1
  H  H129  1  0.31998754  0.98871323  0.34464715  1
  H  H130  1  0.29443407  0.01707243  0.34779668  1
  H  H131  1  0.33056019  0.02613290  0.34385845  1
  H  H132  1  0.30278172  0.06609709  0.25783689  1
  H  H133  1  0.32897387  0.07674540  0.27594876  1
  H  H134  1  0.29278739  0.08479404  0.27971255  1
  H  H135  1  0.30509739  0.08540442  0.31147289  1
  H  H136  1  0.31829337  0.06463004  0.33249531  1
  H  H137  1  0.32221699  0.11197643  0.33677138  1
  H  H138  1  0.34236001  0.15819064  0.34940806  1
  H  H139  1  0.41877518  0.14243874  0.31609914  1
  H  H140  1  0.39835284  0.09521758  0.30368351  1
  H  H141  1  0.41656376  0.18676424  0.33701932  1
  H  H142  1  0.35950969  0.19950250  0.35772343  1
  H  H143  1  0.30515471  0.02754218  0.24524944  1
  H  H144  1  0.29314007  0.99037400  0.24621404  1
  H  H145  1  0.29227736  0.01029273  0.21667048  1
  H  H146  1  0.27202434  -0.00155575  0.18344391  1
  H  H147  1  0.18783668  0.01659495  0.20525791  1
  H  H148  1  0.20827518  0.02635400  0.23895370  1
  H  H149  1  0.23377832  0.99385939  0.16080978  1
  H  H150  1  0.17306294  0.00317033  0.17636592  1
  H  H151  1  0.70428710  0.45307581  0.54424404  1
  H  H152  1  0.74506091  0.44122118  0.56565836  1
  H  H153  1  0.70516634  0.48614037  0.61492640  1
  H  H154  1  0.66516889  0.49845613  0.59272530  1
  H  H155  1  0.73838985  0.47321267  0.63361206  1
  H  H156  1  0.77844103  0.45827739  0.65493236  1
  H  H157  1  0.81628103  0.41408947  0.60523502  1
  H  H158  1  0.77668730  0.42850886  0.58355392  1
  H  H159  1  0.54738324  0.41216312  0.42959549  1
  H  H160  1  0.56410105  0.36615899  0.41412484  1
  H  H161  1  0.65114737  0.39463312  0.42508181  1
  H  H162  1  0.63330789  0.44045577  0.44037093  1
  H  H163  1  0.66352502  0.37008790  0.40518870  1
  H  H164  1  0.68212581  0.32902659  0.38544199  1
  H  H165  1  0.59732872  0.29585155  0.37510575  1
  H  H166  1  0.57793668  0.33572836  0.39567049  1
  H  H167  1  0.41118211  0.63126166  0.58377272  1
  H  H168  1  0.37189564  0.64524765  0.60489885  1
  H  H169  1  0.31752740  0.58456505  0.57204329  1
  H  H170  1  0.35748812  0.57091755  0.55142402  1
  H  H171  1  0.28423542  0.59720910  0.58884208  1
  H  H172  1  0.24423193  0.61440691  0.60812238  1
  H  H173  1  0.29846763  0.67460316  0.64037360  1
  H  H174  1  0.33893578  0.65787668  0.62146736  1
  H  H175  1  0.55367070  0.70528943  0.45416146  1
  H  H176  1  0.56864249  0.74583545  0.43232190  1
  H  H177  1  0.64949754  0.70175882  0.42521641  1
  H  H178  1  0.63383935  0.66204180  0.44738457  1
  H  H179  1  0.66255120  0.73467152  0.40786191  1
  H  H180  1  0.67937232  0.77609256  0.38777895  1
  H  H181  1  0.59967262  0.82086181  0.39419640  1
  H  H182  1  0.58213584  0.77979432  0.41447033  1
  H  H183  1  0.41703228  0.40021798  0.45355139  1
  H  H184  1  0.40078336  0.36134262  0.43095614  1
  H  H185  1  0.48794104  0.33418682  0.42307991  1
  H  H186  1  0.50322792  0.37282029  0.44613650  1
  H  H187  1  0.47482888  0.30184911  0.40437493  1
  H  H188  1  0.45835807  0.26163333  0.38301218  1
  H  H189  1  0.37198949  0.28817750  0.39138256  1
  H  H190  1  0.38760825  0.32863794  0.41280253  1
  H  H191  1  0.39327728  0.49650186  0.56304049  1
  H  H192  1  0.35041154  0.48918643  0.58339827  1
  H  H193  1  0.40400904  0.45752134  0.63257250  1
  H  H194  1  0.44583179  0.46021646  0.61059521  1
  H  H195  1  0.37618652  0.43159752  0.64059041  1
  H  H196  1  0.33648782  0.41871800  0.66264031  1
  H  H197  1  0.27706541  0.45505786  0.61875644  1
  H  H198  1  0.31659078  0.47253599  0.59798491  1
  H  H199  1  0.42267890  0.62317946  0.43843765  1
  H  H200  1  0.40275692  0.66806527  0.42206611  1
  H  H201  1  0.48828713  0.69817023  0.40929526  1
  H  H202  1  0.50717430  0.65400412  0.42711352  1
  H  H203  1  0.47189091  0.72808015  0.39036741  1
  H  H204  1  0.44964356  0.76567052  0.36830821  1
  H  H205  1  0.36687973  0.72944532  0.38037422  1
  H  H206  1  0.38843229  0.69025089  0.40132865  1
  H  H207  1  0.61862809  0.60232281  0.61323557  1
  H  H208  1  0.66195432  0.61285295  0.63304633  1
  H  H209  1  0.71176144  0.60256753  0.57928908  1
  H  H210  1  0.66796526  0.59103661  0.56032264  1
  H  H211  1  0.74418074  0.62213389  0.59314837  1
  H  H212  1  0.78443675  0.64212581  0.61248975  1
  H  H213  1  0.73113500  0.65452601  0.66372765  1
  H  H214  1  0.68998419  0.63659269  0.64442627  1
  H  H215  1  0.98655918  0.06835974  0.07099816  1
  H  H216  1  0.89459977  0.08320550  0.15210990  1
  H  H217  1  0.86436491  0.07068706  0.12170885  1
  H  H218  1  0.91789965  0.07477545  0.12218599  1
  H  H219  1  0.89732785  0.06390412  0.08798658  1
  H  H220  1  0.94981093  0.06848217  0.09512608  1
  H  H221  1  0.93789201  0.05714792  0.05833408  1
  H  H222  1  0.98951054  0.03256885  0.08141502  1
  H  H223  1  0.89787263  0.04546798  0.15842385  1
  H  H224  1  0.86740051  0.03233149  0.12771726  1
  H  H225  1  0.92044735  0.03644369  0.12753939  1
  H  H226  1  0.89929430  0.02523121  0.09324564  1
  H  H227  1  0.95170896  0.03001130  0.10014076  1
  H  H228  1  0.94215616  0.01873670  0.06402159  1
  H  H229  1  0.02288036  0.07160656  0.93136176  1
  H  H230  1  0.04436558  0.17092098  0.85850123  1
  H  H231  1  0.02393608  0.20394841  0.88595849  1
  H  H232  1  0.03036398  0.14868882  0.88681802  1
  H  H233  1  0.01317666  0.16668842  0.92014557  1
  H  H234  1  0.02294084  0.11289685  0.91285913  1
  H  H235  1  0.00622828  0.11922865  0.94813444  1
  H  H236  1  0.05626451  0.07563684  0.94303985  1
  H  H237  1  0.07869958  0.18057765  0.86656256  1
  H  H238  1  0.05904270  0.20899068  0.89533730  1
  H  H239  1  0.06581541  0.15286613  0.89517510  1
  H  H240  1  0.04884609  0.17121296  0.92854920  1
  H  H241  1  0.05843645  0.11727942  0.92098236  1
  H  H242  1  0.04174107  0.12483253  0.95671051  1
  H  H243  1  0.08931804  0.04756925  0.05500878  1
  H  H244  1  0.18802201  0.02850380  0.13903613  1
  H  H245  1  0.13741400  0.01268163  0.14746770  1
  H  H246  1  0.15266109  0.03191877  0.11370600  1
  H  H247  1  0.10131968  0.01817987  0.11777349  1
  H  H248  1  0.12045139  0.03862136  0.08516790  1
  H  H249  1  0.06908931  0.02784061  0.08731843  1
  H  H250  1  0.09497044  0.01117040  0.04652066  1
  H  H251  1  0.19638484  0.99112679  0.13448740  1
  H  H252  1  0.14599844  0.97614613  0.14020365  1
  H  H253  1  0.16021980  0.99527234  0.10624267  1
  H  H254  1  0.10878759  0.98174294  0.10976419  1
  H  H255  1  0.12704325  0.00202619  0.07706448  1
  H  H256  1  0.07446963  0.99100747  0.07913525  1
  H  H257  1  0.01194872  0.95630294  0.96525909  1
  H  H258  1  1.00249369  0.85290709  0.88313434  1
  H  H259  1  0.97994085  0.90231554  0.87130363  1
  H  H260  1  0.00074467  0.89059662  0.90551734  1
  H  H261  1  0.98326327  0.94318903  0.90162815  1
  H  H262  1  0.00440182  0.92387585  0.93427221  1
  H  H263  1  0.99012283  0.97803911  0.93280150  1
  H  H264  1  0.04567835  0.96684326  0.95685468  1
  H  H265  1  0.03416110  0.86356068  0.87157366  1
  H  H266  1  0.01377478  0.91337214  0.86290130  1
  H  H267  1  0.03454266  0.90169098  0.89731125  1
  H  H268  1  0.01724225  0.95426046  0.89365607  1
  H  H269  1  0.03864247  0.93382222  0.92625259  1
  H  H270  1  0.02460884  0.98666049  0.92442797  1
  C  C271  1  0.99711028  0.03882250  0.03029269  1
  C  C272  1  0.02035915  0.03517194  0.01755349  1
  C  C273  1  0.04723385  0.02844675  0.02582585  1
  C  C274  1  0.05132396  0.02504460  0.04660611  1
  C  C275  1  0.02723134  0.02512625  0.05852117  1
  C  C276  1  1.00090249  0.03486528  0.05119247  1
  C  C277  1  0.01942034  0.03550625  0.99475845  1
  C  C278  1  0.02237049  0.06084583  0.98238139  1
  C  C279  1  0.02394155  0.05744894  0.96142098  1
  C  C280  1  0.02046616  0.02905291  0.95351949  1
  C  C281  1  0.02001642  0.00335775  0.96545960  1
  C  C282  1  0.02010811  0.00701575  0.98631163  1
  C  C283  1  0.59216670  0.55527666  0.55196709  1
  C  C284  1  0.51202400  0.59105040  0.46807530  1
  C  C285  1  0.51463053  0.56724451  0.48142114  1
  C  C286  1  0.53679409  0.56665880  0.49547931  1
  C  C287  1  0.55845433  0.58869280  0.49461630  1
  C  C288  1  0.55599942  0.61222172  0.48050396  1
  C  C289  1  0.53146989  0.61427042  0.46851762  1
  C  C290  1  0.50070397  0.45666880  0.47946803  1
  C  C291  1  0.50126595  0.47837447  0.49472875  1
  C  C292  1  0.52383971  0.49956623  0.49569933  1
  C  C293  1  0.54471265  0.49902865  0.48123763  1
  C  C294  1  0.54424739  0.47719518  0.46660126  1
  C  C295  1  0.52298709  0.45581049  0.46599934  1
  C  C296  1  0.45510930  0.56314044  0.54123570  1
  C  C297  1  0.45166210  0.53757696  0.55286833  1
  C  C298  1  0.47113592  0.51435197  0.55206799  1
  C  C299  1  0.49629658  0.51742846  0.54172604  1
  C  C300  1  0.49911368  0.54112107  0.52842467  1
  C  C301  1  0.47830589  0.56432355  0.52803681  1
  C  C302  1  0.61453187  0.53522031  0.55081869  1
  C  C303  1  0.61107505  0.50845959  0.54071376  1
  C  C304  1  0.58686144  0.50514648  0.52804893  1
  C  C305  1  0.56432249  0.52635679  0.52887442  1
  C  C306  1  0.56599020  0.54889943  0.54298912  1
  C  C307  1  0.87154164  0.41305124  0.66456422  1
  C  C308  1  0.88656824  0.38644560  0.66446855  1
  C  C309  1  0.91414121  0.38011192  0.67373654  1
  C  C310  1  0.92651713  0.35149043  0.67184889  1
  C  C311  1  0.95323709  0.34444213  0.67980886  1
  C  C312  1  0.96875606  0.36571087  0.69055244  1
  C  C313  1  0.95716069  0.39414436  0.69285553  1
  C  C314  1  0.93041308  0.40116726  0.68479299  1
  C  C315  1  0.00744534  0.33082249  0.69858612  1
  C  C316  1  0.03535440  0.33080762  0.71019408  1
  C  C317  1  0.06055982  0.33831468  0.70016716  1
  C  C318  1  0.08627311  0.33907792  0.71135855  1
  C  C319  1  0.08737844  0.33410110  0.73235833  1
  C  C320  1  0.06196187  0.32719776  0.74226519  1
  C  C321  1  0.03625857  0.32404771  0.73111927  1
  C  C322  1  0.00931063  0.31356328  0.74054144  1
  C  C323  1  0.06094564  0.34383824  0.67786168  1
  C  C324  1  0.11570291  0.33732378  0.74294663  1
  C  C325  1  0.11289674  0.34889632  0.70146320  1
  C  C326  1  0.14189982  0.39193291  0.70014187  1
  C  C327  1  0.15937997  0.37601785  0.68729628  1
  C  C328  1  0.18470129  0.38834789  0.68141973  1
  C  C329  1  0.19374816  0.41611000  0.68922200  1
  C  C330  1  0.17482974  0.43267039  0.70121777  1
  C  C331  1  0.14895646  0.42068183  0.70648463  1
  C  C332  1  0.22113631  0.42589646  0.68391989  1
  C  C333  1  0.23917452  0.40717841  0.67364312  1
  C  C334  1  0.06310316  0.32326514  0.76480238  1
  C  C335  1  0.07093809  0.28309911  0.78868612  1
  C  C336  1  0.06511984  0.30126988  0.80509273  1
  C  C337  1  0.06090243  0.28854222  0.82396414  1
  C  C338  1  0.06287710  0.25736255  0.82727695  1
  C  C339  1  0.07125647  0.24002271  0.81067352  1
  C  C340  1  0.07511309  0.25267298  0.79174868  1
  C  C341  1  0.05739433  0.24297289  0.84662478  1
  C  C342  1  0.05715347  0.21259019  0.84823375  1
  C  C343  1  0.66872894  0.87097321  0.35527442  1
  C  C344  1  0.69134273  0.89005052  0.35906838  1
  C  C345  1  0.70064748  0.91504454  0.34687735  1
  C  C346  1  0.72424760  0.93234591  0.35333977  1
  C  C347  1  0.73395250  0.95677673  0.34248205  1
  C  C348  1  0.72033187  0.96512178  0.32445449  1
  C  C349  1  0.69731936  0.94823433  0.31738637  1
  C  C350  1  0.68758050  0.92381129  0.32834359  1
  C  C351  1  0.75060725  0.00893724  0.32011099  1
  C  C352  1  0.75275448  0.03493141  0.30562664  1
  C  C353  1  0.77078016  0.03336912  0.28886865  1
  C  C354  1  0.77133083  0.05730343  0.27491593  1
  C  C355  1  0.75398480  0.08258858  0.27740675  1
  C  C356  1  0.73551607  0.08331575  0.29384902  1
  C  C357  1  0.73572311  0.06048888  0.30858901  1
  C  C358  1  0.71877917  0.06227978  0.32745449  1
  C  C359  1  0.79096864  0.00784866  0.28669476  1
  C  C360  1  0.75604642  0.10744136  0.26219859  1
  C  C361  1  0.79011956  0.05673973  0.25692916  1
  C  C362  1  0.78702177  0.05264672  0.22109421  1
  C  C363  1  0.81646348  0.05574058  0.22060373  1
  C  C364  1  0.83022195  0.05517920  0.20232630  1
  C  C365  1  0.81503407  0.05383987  0.18383141  1
  C  C366  1  0.78514498  0.05016908  0.18478282  1
  C  C367  1  0.77140312  0.04928865  0.20313734  1
  C  C368  1  0.83103378  0.05573594  0.16531424  1
  C  C369  1  0.85856527  0.06521429  0.16595488  1
  C  C370  1  0.71675738  0.11002998  0.29567166  1
  C  C371  1  0.71832482  0.15748602  0.31063743  1
  C  C372  1  0.69009318  0.16188023  0.30425035  1
  C  C373  1  0.67452097  0.18455434  0.31250300  1
  C  C374  1  0.68697174  0.20397836  0.32680054  1
  C  C375  1  0.71611849  0.19999294  0.33212228  1
  C  C376  1  0.73169598  0.17722190  0.32381337  1
  C  C377  1  0.67057254  0.22689640  0.33551989  1
  C  C378  1  0.68128138  0.24662248  0.34953599  1
  C  C379  1  0.82898033  0.68177138  0.66777803  1
  C  C380  1  0.84263411  0.66763339  0.68382743  1
  C  C381  1  0.87055726  0.67480429  0.69066986  1
  C  C382  1  0.88315659  0.65983664  0.70744906  1
  C  C383  1  0.91046539  0.66642067  0.71390348  1
  C  C384  1  0.92583300  0.68842530  0.70375873  1
  C  C385  1  0.91408033  0.70345212  0.68710152  1
  C  C386  1  0.88687722  0.69660934  0.68046739  1
  C  C387  1  0.96471467  0.68373976  0.72771603  1
  C  C388  1  0.99216529  0.69996392  0.73126968  1
  C  C389  1  0.01670016  0.69043194  0.72121801  1
  C  C390  1  0.04190589  0.70726661  0.72308792  1
  C  C391  1  0.04193061  0.73404554  0.73425376  1
  C  C392  1  0.01660749  0.74430086  0.74301965  1
  C  C393  1  0.99163562  0.72695670  0.74203700  1
  C  C394  1  0.96417173  0.73584602  0.75152485  1
  C  C395  1  0.01603378  0.66171183  0.70985985  1
  C  C396  1  0.06950477  0.75059104  0.73598138  1
  C  C397  1  0.06918642  0.69632696  0.71403504  1
  C  C398  1  0.10179878  0.70716111  0.68694815  1
  C  C399  1  0.11963871  0.68351324  0.69253798  1
  C  C400  1  0.14471439  0.67840665  0.68223303  1
  C  C401  1  0.15301398  0.69646036  0.66573413  1
  C  C402  1  0.13422505  0.72006840  0.66036887  1
  C  C403  1  0.10914169  0.72513831  0.67055280  1
  C  C404  1  0.17880484  0.69171411  0.65448368  1
  C  C405  1  0.19906035  0.66963148  0.65770865  1
  C  C406  1  0.01618417  0.77361559  0.75386747  1
  C  C407  1  0.02038910  0.79135254  0.78793289  1
  C  C408  1  0.01356547  0.82035305  0.78168031  1
  C  C409  1  0.00864099  0.84217439  0.79588023  1
  C  C410  1  0.01072116  0.83592708  0.81674198  1
  C  C411  1  0.01945414  0.80688316  0.82255028  1
  C  C412  1  0.02385141  0.78482353  0.80841126  1
  C  C413  1  0.00561427  0.85802614  0.83209519  1
  C  C414  1  0.00071173  0.84995601  0.85149835  1
  C  C415  1  0.37496384  0.81682050  0.33990386  1
  C  C416  1  0.34945548  0.83059003  0.34414052  1
  C  C417  1  0.34268883  0.85999315  0.33773251  1
  C  C418  1  0.31578832  0.87280272  0.34146286  1
  C  C419  1  0.30948437  0.90142626  0.33513444  1
  C  C420  1  0.33000283  0.91783998  0.32482802  1
  C  C421  1  0.35695163  0.90611728  0.32137594  1
  C  C422  1  0.36349134  0.87767774  0.32806762  1
  C  C423  1  0.29633762  0.95741201  0.31889778  1
  C  C424  1  0.29676367  0.98620755  0.30740776  1
  C  C425  1  0.30726296  0.01186359  0.31713239  1
  C  C426  1  0.31028753  0.03842126  0.30590603  1
  C  C427  1  0.30415351  0.03872431  0.28496877  1
  C  C428  1  0.29588802  0.01213339  0.27531094  1
  C  C429  1  0.29141551  0.98572109  0.28643485  1
  C  C430  1  0.28192655  0.95687084  0.27718763  1
  C  C431  1  0.31347332  0.01089624  0.33934826  1
  C  C432  1  0.30735489  0.06779356  0.27396690  1
  C  C433  1  0.31920195  0.06683906  0.31605794  1
  C  C434  1  0.35866947  0.10082036  0.31886642  1
  C  C435  1  0.34332141  0.11855310  0.33195545  1
  C  C436  1  0.35497372  0.14486352  0.33928153  1
  C  C437  1  0.38252777  0.15453228  0.33397763  1
  C  C438  1  0.39759873  0.13584329  0.32072028  1
  C  C439  1  0.38609235  0.10943493  0.31350973  1
  C  C440  1  0.39509509  0.18156132  0.34179432  1
  C  C441  1  0.38220631  0.20141645  0.35465201  1
  C  C442  1  0.29053141  0.01237865  0.25301311  1
  C  C443  1  0.25123751  0.01727807  0.23018031  1
  C  C444  1  0.26931360  0.01030684  0.21445095  1
  C  C445  1  0.25791610  0.00429566  0.19560190  1
  C  C446  1  0.22834720  0.00585431  0.19166231  1
  C  C447  1  0.21067285  0.01441365  0.20767133  1
  C  C448  1  0.22203370  0.02007341  0.22668528  1
  C  C449  1  0.21749039  -0.00025684  0.17159585  1
  C  C450  1  0.18992685  0.00174909  0.16535651  1
  C  C451  1  0.63434984  0.48811294  0.54437245  1
  C  C452  1  0.65607654  0.48172470  0.55424611  1
  C  C453  1  0.68034682  0.47533708  0.56681284  1
  C  C454  1  0.70420379  0.45978526  0.55995209  1
  C  C455  1  0.72747825  0.45299451  0.57238950  1
  C  C456  1  0.72877648  0.46102007  0.59290642  1
  C  C457  1  0.70547665  0.47796773  0.59957170  1
  C  C458  1  0.68244672  0.48500167  0.58698106  1
  C  C459  1  0.75322869  0.45240821  0.60628498  1
  C  C460  1  0.75514199  0.46018231  0.62685036  1
  C  C461  1  0.77805380  0.45173087  0.63917681  1
  C  C462  1  0.80109133  0.43480426  0.63202229  1
  C  C463  1  0.79904557  0.42713052  0.61146085  1
  C  C464  1  0.77625527  0.43551329  0.59915332  1
  C  C465  1  0.82503871  0.42600096  0.64401753  1
  C  C466  1  0.84652613  0.41802798  0.65348330  1
  C  C467  1  0.56785222  0.47518297  0.45309237  1
  C  C468  1  0.57935558  0.45589996  0.44322047  1
  C  C469  1  0.58964039  0.43048742  0.43355808  1
  C  C470  1  0.56997313  0.40848068  0.42736603  1
  C  C471  1  0.57945258  0.38315226  0.41837102  1
  C  C472  1  0.60888959  0.37949784  0.41512236  1
  C  C473  1  0.62851486  0.39930861  0.42421692  1
  C  C474  1  0.61884831  0.42461913  0.43329721  1
  C  C475  1  0.61939207  0.35528513  0.40289164  1
  C  C476  1  0.64885937  0.35343696  0.39941390  1
  C  C477  1  0.65939277  0.33093702  0.38796153  1
  C  C478  1  0.64088319  0.30981974  0.37906254  1
  C  C479  1  0.61140584  0.31211200  0.38212905  1
  C  C480  1  0.60078156  0.33443757  0.39379620  1
  C  C481  1  0.65219530  0.28698070  0.36750838  1
  C  C482  1  0.66405151  0.26742965  0.35811609  1
  C  C483  1  0.43283826  0.58462175  0.54419071  1
  C  C484  1  0.41158503  0.59251551  0.55346353  1
  C  C485  1  0.38769265  0.60077373  0.56520433  1
  C  C486  1  0.39035500  0.62139972  0.58098414  1
  C  C487  1  0.36769078  0.62938149  0.59295219  1
  C  C488  1  0.34016520  0.61734530  0.59012142  1
  C  C489  1  0.33768633  0.59577173  0.57481511  1
  C  C490  1  0.36052760  0.58775629  0.56295647  1
  C  C491  1  0.31564428  0.62675316  0.60244381  1
  C  C492  1  0.28808043  0.61472552  0.59973749  1
  C  C493  1  0.26506559  0.62438411  0.61073739  1
  C  C494  1  0.26741182  0.64693075  0.62540762  1
  C  C495  1  0.29522600  0.65794243  0.62873318  1
  C  C496  1  0.31831355  0.64827912  0.61776534  1
  C  C497  1  0.24349082  0.65702947  0.63621311  1
  C  C498  1  0.22232664  0.66500633  0.64540905  1
  C  C499  1  0.57598772  0.63524791  0.47602946  1
  C  C500  1  0.58426367  0.65660197  0.46592382  1
  C  C501  1  0.59291005  0.68067383  0.45329046  1
  C  C502  1  0.57498501  0.70485975  0.44804146  1
  C  C503  1  0.58371426  0.72797357  0.43552573  1
  C  C504  1  0.61103232  0.72853371  0.42698830  1
  C  C505  1  0.62849775  0.70368969  0.43162510  1
  C  C506  1  0.61972504  0.68081929  0.44426587  1
  C  C507  1  0.62094119  0.75342238  0.41397755  1
  C  C508  1  0.64829560  0.75347612  0.40551313  1
  C  C509  1  0.65807842  0.77705043  0.39392905  1
  C  C510  1  0.64141868  0.80263727  0.38970249  1
  C  C511  1  0.61363831  0.80201769  0.39751543  1
  C  C512  1  0.60380652  0.77846117  0.40914494  1
  C  C513  1  0.65187546  0.82689882  0.37819022  1
  C  C514  1  0.66108196  0.84794925  0.36824995  1
  C  C515  1  0.47973771  0.43413550  0.47538229  1
  C  C516  1  0.47066826  0.41351643  0.46488559  1
  C  C517  1  0.46146534  0.39000953  0.45196791  1
  C  C518  1  0.43260628  0.38541706  0.44697488  1
  C  C519  1  0.42349128  0.36304889  0.43403052  1
  C  C520  1  0.44264370  0.34324494  0.42492082  1
  C  C521  1  0.47168219  0.34806878  0.42967371  1
  C  C522  1  0.48063045  0.37037353  0.44270792  1
  C  C523  1  0.43287774  0.31901748  0.41132320  1
  C  C524  1  0.45203555  0.29934275  0.40207074  1
  C  C525  1  0.44283337  0.27630287  0.38979439  1
  C  C526  1  0.41375841  0.27083582  0.38570227  1
  C  C527  1  0.39464580  0.29108572  0.39444403  1
  C  C528  1  0.40378754  0.31416621  0.40670983  1
  C  C529  1  0.40454730  0.24654086  0.37373591  1
  C  C530  1  0.39608074  0.22516413  0.36383243  1
  C  C531  1  0.46501625  0.48740035  0.56317832  1
  C  C532  1  0.44539603  0.47841004  0.57336922  1
  C  C533  1  0.42092414  0.47371896  0.58472824  1
  C  C534  1  0.39447745  0.48495804  0.57751441  1
  C  C535  1  0.37083293  0.48082014  0.58887099  1
  C  C536  1  0.37372637  0.46606126  0.60771143  1
  C  C537  1  0.40094741  0.46131994  0.61651337  1
  C  C538  1  0.42441808  0.46445367  0.60480147  1
  C  C539  1  0.34938094  0.45611614  0.61899104  1
  C  C540  1  0.35491776  0.43936695  0.63672660  1
  C  C541  1  0.33281176  0.43055847  0.64845086  1
  C  C542  1  0.30458385  0.43633141  0.64204737  1
  C  C543  1  0.29902427  0.45141716  0.62360082  1
  C  C544  1  0.32112597  0.46124142  0.61220693  1
  C  C545  1  0.28233540  0.42624066  0.65386832  1
  C  C546  1  0.26226800  0.41797488  0.66386753  1
  C  C547  1  0.48820372  0.59223560  0.45413871  1
  C  C548  1  0.47672421  0.61045073  0.44285052  1
  C  C549  1  0.46569627  0.63455172  0.43160161  1
  C  C550  1  0.43628151  0.63924050  0.43091809  1
  C  C551  1  0.42539888  0.66379753  0.42107739  1
  C  C552  1  0.44395493  0.68367895  0.41122027  1
  C  C553  1  0.47369482  0.68106542  0.41440684  1
  C  C554  1  0.48440515  0.65672141  0.42451652  1
  C  C555  1  0.43177181  0.70681888  0.39824526  1
  C  C556  1  0.44892990  0.72807558  0.38837686  1
  C  C557  1  0.43667600  0.74911399  0.37592073  1
  C  C558  1  0.40686745  0.74983271  0.37277718  1
  C  C559  1  0.38984256  0.72859957  0.38268049  1
  C  C560  1  0.40205894  0.70721609  0.39489254  1
  C  C561  1  0.39447818  0.77175646  0.36040114  1
  C  C562  1  0.38395264  0.79216239  0.35049028  1
  C  C563  1  0.59643024  0.58142643  0.56411742  1
  C  C564  1  0.61581551  0.59216712  0.57419957  1
  C  C565  1  0.64039169  0.60024437  0.58519145  1
  C  C566  1  0.63910250  0.60455104  0.60600959  1
  C  C567  1  0.66338001  0.61133241  0.61679448  1
  C  C568  1  0.68951288  0.61423264  0.60679517  1
  C  C569  1  0.69139728  0.60489135  0.58657244  1
  C  C570  1  0.66709861  0.59799919  0.57594920  1
  C  C571  1  0.71412686  0.62602740  0.61768865  1
  C  C572  1  0.74100615  0.62868681  0.60864201  1
  C  C573  1  0.76364786  0.64010748  0.61931323  1
  C  C574  1  0.76047648  0.64951677  0.63941433  1
  C  C575  1  0.73352589  0.64721340  0.64826586  1
  C  C576  1  0.71072163  0.63624547  0.63752972  1
  C  C577  1  0.78361981  0.66104178  0.65028873  1
  C  C578  1  0.80448224  0.67037404  0.65947724  1
  C  C579  1  0.98128814  0.04473675  0.06801792  1
  C  C580  1  0.88295803  0.06187400  0.15151106  1
  C  C581  1  0.87804246  0.05398680  0.12923650  1
  C  C582  1  0.90738985  0.05320218  0.11937073  1
  C  C583  1  0.90915070  0.04684432  0.09667159  1
  C  C584  1  0.94061213  0.04683519  0.09067930  1
  C  C585  1  0.94869506  0.04122773  0.06854691  1
  C  C586  1  0.03329521  0.07987835  0.94525986  1
  C  C587  1  0.05675871  0.18938805  0.86514342  1
  C  C588  1  0.04527389  0.19404349  0.88653606  1
  C  C589  1  0.04436834  0.16261148  0.89633181  1
  C  C590  1  0.03496480  0.15839331  0.91835845  1
  C  C591  1  0.03655109  0.12487438  0.92379388  1
  C  C592  1  0.02853563  0.11387594  0.94514865  1
  C  C593  1  0.08089861  0.02456729  0.05596378  1
  C  C594  1  0.18245832  0.00536706  0.14354717  1
  C  C595  1  0.15143277  0.99973642  0.13771572  1
  C  C596  1  0.14615630  0.00851018  0.11581698  1
  C  C597  1  0.11562290  0.00512506  0.10827170  1
  C  C598  1  0.11283391  0.01545297  0.08639915  1
  C  C599  1  0.08264081  0.01396183  0.07784600  1
  C  C600  1  0.02289247  0.97298081  0.95591826  1
  C  C601  1  0.01071438  0.86579856  0.87032201  1
  C  C602  1  0.00290065  0.89876386  0.87366067  1
  C  C603  1  0.01161433  0.90630791  0.89538747  1
  C  C604  1  0.00605984  0.93779387  0.90302016  1
  C  C605  1  0.01602844  0.94020370  0.92504633  1
  C  C606  1  0.01259591  0.97115616  0.93396579  1
  O  O607  1  -0.00480493  0.36074392  0.69866606  1
  O  O608  1  0.07392836  0.29364448  0.76958150  1
  O  O609  1  0.11736489  0.38000230  0.70680668  1
  O  O610  1  0.72862873  0.98856318  0.31276879  1
  O  O611  1  0.73368151  0.13412132  0.30405926  1
  O  O612  1  0.77276462  0.05253603  0.23871581  1
  O  O613  1  0.95284162  0.69585660  0.70896437  1
  O  O614  1  0.02487671  0.76887070  0.77479318  1
  O  O615  1  0.07722814  0.71402084  0.69644958  1
  O  O616  1  0.32532325  0.94606689  0.31829036  1
  O  O617  1  0.26145615  0.02212310  0.24908312  1
  O  O618  1  0.34823169  0.07510223  0.31093152  1
