# generated using pymatgen
data_SiH198(C151O7)2
_symmetry_space_group_name_H-M   'P 1'
_cell_length_a   40.36188248
_cell_length_b   38.55915317
_cell_length_c   67.77659250
_cell_angle_alpha   89.15960989
_cell_angle_beta   91.04245564
_cell_angle_gamma   88.24538345
_symmetry_Int_Tables_number   1
_chemical_formula_structural   SiH198(C151O7)2
_chemical_formula_sum   'Si1 H198 C302 O14'
_cell_volume   105402.92659345
_cell_formula_units_Z   1
loop_
 _symmetry_equiv_pos_site_id
 _symmetry_equiv_pos_as_xyz
  1  'x, y, z'
loop_
 _atom_site_type_symbol
 _atom_site_label
 _atom_site_symmetry_multiplicity
 _atom_site_fract_x
 _atom_site_fract_y
 _atom_site_fract_z
 _atom_site_occupancy
  Si  Si0  1  0.53788630  0.53606252  0.51879959  1
  H  H1  1  0.00668099  0.98248699  0.97908484  1
  H  H2  1  0.04414282  0.03665072  0.92911196  1
  H  H3  1  0.04057089  0.08707882  0.98500592  1
  H  H4  1  0.08095087  0.04474233  0.04776484  1
  H  H5  1  0.02274660  0.01553358  0.09711884  1
  H  H6  1  0.97557884  0.03117285  0.04061705  1
  H  H7  1  0.66107786  0.54553059  0.55992742  1
  H  H8  1  0.53108321  0.65533312  0.46834663  1
  H  H9  1  0.49825268  0.55799107  0.48986940  1
  H  H10  1  0.53089577  0.42309402  0.46502662  1
  H  H11  1  0.42168725  0.54077319  0.56500331  1
  H  H12  1  0.58995281  0.59955046  0.51260464  1
  H  H13  1  0.48386728  0.47261460  0.51412519  1
  H  H14  1  0.57189568  0.51490108  0.48823003  1
  H  H15  1  0.51607868  0.49924277  0.54871885  1
  H  H16  1  0.47692505  0.59511710  0.52129516  1
  H  H17  1  0.60480852  0.48527896  0.51981503  1
  H  H18  1  0.55822724  0.57076382  0.55129974  1
  H  H19  1  0.86087451  0.43925057  0.63698305  1
  H  H20  1  0.85850663  0.36257038  0.62429561  1
  H  H21  1  0.90487568  0.32425785  0.63214293  1
  H  H22  1  0.96131699  0.31219974  0.64476226  1
  H  H23  1  0.96810882  0.41846110  0.66258726  1
  H  H24  1  0.91157075  0.43122281  0.64967512  1
  H  H25  1  0.01780064  0.31416638  0.64824617  1
  H  H26  1  -0.00328738  0.30715836  0.67056942  1
  H  H27  1  0.01789471  0.31325487  0.72130409  1
  H  H28  1  0.00896398  0.28507057  0.70181657  1
  H  H29  1  -0.00462498  0.32926676  0.70038531  1
  H  H30  1  0.05203840  0.34110020  0.63577721  1
  H  H31  1  0.08581516  0.31069107  0.63586922  1
  H  H32  1  0.09274396  0.35575233  0.63677811  1
  H  H33  1  0.13754892  0.33842121  0.72296657  1
  H  H34  1  0.14756866  0.36711064  0.70350582  1
  H  H35  1  0.15927815  0.32268551  0.70257393  1
  H  H36  1  0.15854069  0.33411196  0.67157812  1
  H  H37  1  0.13488829  0.34393538  0.64962101  1
  H  H38  1  0.18294727  0.34942953  0.64754842  1
  H  H39  1  0.23578753  0.37034141  0.63765065  1
  H  H40  1  0.21302409  0.47024711  0.66425874  1
  H  H41  1  0.15879988  0.44779218  0.67509921  1
  H  H42  1  0.26839126  0.45806299  0.64693991  1
  H  H43  1  0.27560958  0.38176033  0.63157224  1
  H  H44  1  0.09443387  0.34274989  0.73456374  1
  H  H45  1  0.05455651  0.32522870  0.73507692  1
  H  H46  1  0.07944571  0.33178279  0.76353426  1
  H  H47  1  0.06654700  0.31365925  0.79724611  1
  H  H48  1  0.08638641  0.20644016  0.78169969  1
  H  H49  1  0.09804081  0.22528630  0.74773158  1
  H  H50  1  0.06192887  0.26890875  0.82293072  1
  H  H51  1  0.07551238  0.19316666  0.80962162  1
  H  H52  1  0.65661441  0.84247512  0.38970517  1
  H  H53  1  0.71640608  0.85398730  0.41787678  1
  H  H54  1  0.75253051  0.89994772  0.41121710  1
  H  H55  1  0.77005921  0.95028156  0.39203998  1
  H  H56  1  0.68787132  0.93868180  0.35160782  1
  H  H57  1  0.66990568  0.88792261  0.37064882  1
  H  H58  1  0.78791723  0.98391993  0.36761506  1
  H  H59  1  0.75855858  0.00585838  0.38245500  1
  H  H60  1  0.70858801  0.08311583  0.37667005  1
  H  H61  1  0.74299229  0.06381411  0.38937068  1
  H  H62  1  0.71231947  0.03756733  0.37864924  1
  H  H63  1  0.80033825  0.97451101  0.34077166  1
  H  H64  1  0.83311639  0.00325151  0.33715120  1
  H  H65  1  0.80789313  0.99072561  0.31699996  1
  H  H66  1  0.74399011  0.13650154  0.31451447  1
  H  H67  1  0.75184356  0.10493067  0.29629272  1
  H  H68  1  0.78492358  0.12599246  0.30801722  1
  H  H69  1  0.81274265  0.07953312  0.30025066  1
  H  H70  1  0.82060142  0.03426497  0.30439349  1
  H  H71  1  0.84199847  0.05276147  0.27968771  1
  H  H72  1  0.86436965  0.05661366  0.24682072  1
  H  H73  1  0.76617657  0.04358964  0.22158443  1
  H  H74  1  0.74352165  0.04063666  0.25531248  1
  H  H75  1  0.81320101  0.04921457  0.19925044  1
  H  H76  1  0.88221947  0.05949402  0.21894702  1
  H  H77  1  0.70924117  0.12722267  0.33293457  1
  H  H78  1  0.70336295  0.11565171  0.35787116  1
  H  H79  1  0.67882025  0.16160781  0.34560360  1
  H  H80  1  0.64648936  0.20778945  0.36174702  1
  H  H81  1  0.73590326  0.24075736  0.39165749  1
  H  H82  1  0.76792027  0.19342941  0.37592383  1
  H  H83  1  0.64327098  0.25750907  0.38344061  1
  H  H84  1  0.70990613  0.27733193  0.40367363  1
  H  H85  1  0.80722515  0.71067049  0.62331502  1
  H  H86  1  0.80445161  0.64720840  0.65213683  1
  H  H87  1  0.85223927  0.63564242  0.67352560  1
  H  H88  1  0.90887079  0.64836654  0.68465856  1
  H  H89  1  0.91094251  0.73392275  0.64274465  1
  H  H90  1  0.85425416  0.72103384  0.63123093  1
  H  H91  1  0.96117464  0.65518721  0.68477483  1
  H  H92  1  0.93923107  0.68524283  0.69959687  1
  H  H93  1  0.95653702  0.76526934  0.72133248  1
  H  H94  1  0.94831951  0.72114796  0.72516550  1
  H  H95  1  0.93531376  0.74255202  0.70290782  1
  H  H96  1  0.99425598  0.65179916  0.66450457  1
  H  H97  1  0.02797036  0.63496292  0.67905639  1
  H  H98  1  0.03489760  0.66007940  0.65750396  1
  H  H99  1  0.07585436  0.78057967  0.70944404  1
  H  H100  1  0.08698391  0.76708844  0.68543428  1
  H  H101  1  0.09867818  0.74149571  0.70639876  1
  H  H102  1  0.10016793  0.69887377  0.68569016  1
  H  H103  1  0.07737964  0.67274289  0.66918697  1
  H  H104  1  0.12941477  0.66945082  0.66518379  1
  H  H105  1  0.18289519  0.66270393  0.64954092  1
  H  H106  1  0.16208941  0.75667583  0.61529206  1
  H  H107  1  0.10810376  0.76338787  0.63160839  1
  H  H108  1  0.21413714  0.72471371  0.60960195  1
  H  H109  1  0.22934560  0.65806273  0.63459504  1
  H  H110  1  0.03159011  0.80149081  0.71274844  1
  H  H111  1  0.99210229  0.79225807  0.72184800  1
  H  H112  1  0.01535059  0.83962620  0.73256557  1
  H  H113  1  0.00229287  0.88133052  0.75846320  1
  H  H114  1  0.02414492  0.80142602  0.80287719  1
  H  H115  1  0.03629695  0.75977297  0.77660213  1
  H  H116  1  0.99884563  0.89693509  0.79333475  1
  H  H117  1  0.01197192  0.83607720  0.82318889  1
  H  H118  1  0.40056811  0.80431822  0.38707572  1
  H  H119  1  0.33024556  0.79379556  0.40406755  1
  H  H120  1  0.29120782  0.84427774  0.39794825  1
  H  H121  1  0.28071473  0.90419813  0.38594363  1
  H  H122  1  0.38271361  0.90965046  0.36764957  1
  H  H123  1  0.39397819  0.85001521  0.38029556  1
  H  H124  1  0.28377801  0.95897451  0.38351450  1
  H  H125  1  0.27691577  0.93730217  0.36097361  1
  H  H126  1  0.28237103  0.95727502  0.31072638  1
  H  H127  1  0.25599983  0.94797465  0.33036403  1
  H  H128  1  0.29832310  0.93432724  0.33158543  1
  H  H129  1  0.31206574  0.99333835  0.39563854  1
  H  H130  1  0.28285572  0.02842512  0.39612005  1
  H  H131  1  0.32589159  0.03601822  0.39503279  1
  H  H132  1  0.30744037  0.08228058  0.30874924  1
  H  H133  1  0.33538703  0.09348748  0.32801425  1
  H  H134  1  0.29281163  0.10523212  0.32923179  1
  H  H135  1  0.30398630  0.10568958  0.36084415  1
  H  H136  1  0.31520892  0.08108412  0.38248883  1
  H  H137  1  0.31964861  0.13581013  0.38543440  1
  H  H138  1  0.33986925  0.19116488  0.39660613  1
  H  H139  1  0.43442997  0.16811542  0.36999759  1
  H  H140  1  0.41336198  0.11226317  0.35846717  1
  H  H141  1  0.42808213  0.22191651  0.38762009  1
  H  H142  1  0.36065868  0.23983079  0.40664120  1
  H  H143  1  0.31031308  0.03706060  0.29691454  1
  H  H144  1  0.29387849  0.99516811  0.29726284  1
  H  H145  1  0.29949517  0.01937681  0.26893035  1
  H  H146  1  0.28157747  0.00535330  0.23530564  1
  H  H147  1  0.17947549  0.02704779  0.25099537  1
  H  H148  1  0.19782802  0.03937007  0.28500929  1
  H  H149  1  0.23889990  0.00214490  0.20969140  1
  H  H150  1  0.16647289  0.01466075  0.22306615  1
  H  H151  1  0.70557799  0.50614297  0.59274540  1
  H  H152  1  0.75266419  0.48798296  0.61454805  1
  H  H153  1  0.77779476  0.40617916  0.57467564  1
  H  H154  1  0.73075682  0.42492421  0.55281897  1
  H  H155  1  0.58849397  0.42762437  0.41998537  1
  H  H156  1  0.61487778  0.37800426  0.40104097  1
  H  H157  1  0.65246699  0.33271623  0.45621935  1
  H  H158  1  0.62600065  0.38294477  0.47465138  1
  H  H159  1  0.33643600  0.57809935  0.56166376  1
  H  H160  1  0.28926713  0.59953152  0.58114727  1
  H  H161  1  0.34655528  0.68490945  0.60050482  1
  H  H162  1  0.39357697  0.66319820  0.58095420  1
  H  H163  1  0.56583759  0.73596278  0.45842327  1
  H  H164  1  0.58798801  0.78252201  0.43761459  1
  H  H165  1  0.68284683  0.72894073  0.43796591  1
  H  H166  1  0.66038083  0.68256550  0.45888147  1
  H  H167  1  0.47032355  0.32955719  0.47812365  1
  H  H168  1  0.44631220  0.28480050  0.45700066  1
  H  H169  1  0.40814974  0.36425008  0.41700996  1
  H  H170  1  0.43218183  0.40877208  0.43824228  1
  H  H171  1  0.41337263  0.42206633  0.57284354  1
  H  H172  1  0.36593293  0.39762752  0.59264608  1
  H  H173  1  0.34775918  0.49918632  0.61775104  1
  H  H174  1  0.39568138  0.52255376  0.59827894  1
  H  H175  1  0.44095523  0.62621605  0.42263324  1
  H  H176  1  0.40854763  0.67402733  0.40346217  1
  H  H177  1  0.43965217  0.74866006  0.44669957  1
  H  H178  1  0.47086884  0.70060965  0.46587263  1
  H  H179  1  0.68334470  0.56677714  0.60050179  1
  H  H180  1  0.73207662  0.59420693  0.61731191  1
  H  H181  1  0.70541063  0.69210371  0.58819951  1
  H  H182  1  0.65769151  0.66339160  0.57083063  1
  H  H183  1  0.95251357  0.09153871  0.12037021  1
  H  H184  1  0.92497864  0.09959295  0.15247699  1
  H  H185  1  0.90223440  0.99138281  0.15370965  1
  H  H186  1  0.92977934  0.98384525  0.12151140  1
  H  H187  1  0.03519603  0.08824174  0.89096982  1
  H  H188  1  0.04014197  0.12045113  0.85941995  1
  H  H189  1  0.07487963  0.20860682  0.89092928  1
  H  H190  1  0.06993962  0.17596860  0.92251470  1
  H  H191  1  0.11018597  0.96898146  0.12198471  1
  H  H192  1  0.13881898  0.96101417  0.15474035  1
  H  H193  1  0.14811117  0.07180056  0.15842217  1
  H  H194  1  0.11960451  0.07930561  0.12557084  1
  H  H195  1  0.97696305  0.90857705  0.91465627  1
  H  H196  1  0.97391200  0.88135081  0.88152599  1
  H  H197  1  0.03941603  0.95792120  0.85882434  1
  H  H198  1  0.04224063  0.98471197  0.89197266  1
  C  C199  1  0.02199026  0.03482404  0.98430617  1
  C  C200  1  0.01595943  0.00618303  0.97262003  1
  C  C201  1  0.03640657  0.03658963  0.94445345  1
  C  C202  1  0.02303577  0.00671028  0.95254047  1
  C  C203  1  0.03403947  0.06533873  0.97584198  1
  C  C204  1  0.03895757  0.06690841  0.95540275  1
  C  C205  1  0.01357954  0.02946198  0.00559847  1
  C  C206  1  0.02854771  0.03968134  0.04181797  1
  C  C207  1  0.05687498  0.03948671  0.05388604  1
  C  C208  1  0.02431640  0.02403360  0.08174744  1
  C  C209  1  0.05520688  0.03091497  0.07391665  1
  C  C210  1  0.99746677  0.03371914  0.04997312  1
  C  C211  1  0.99526226  0.02952057  0.07049067  1
  C  C212  1  0.03505045  0.04771751  0.02053271  1
  C  C213  1  0.60970972  0.56034339  0.55661206  1
  C  C214  1  0.51270999  0.60644753  0.47810693  1
  C  C215  1  0.51755827  0.57701907  0.48989995  1
  C  C216  1  0.54478497  0.57498846  0.50264422  1
  C  C217  1  0.56920236  0.60092969  0.50213748  1
  C  C218  1  0.56566429  0.62874671  0.48837955  1
  C  C219  1  0.53591412  0.63233238  0.47761746  1
  C  C220  1  0.50186685  0.44738653  0.48767394  1
  C  C221  1  0.50241041  0.47253598  0.50268566  1
  C  C222  1  0.52814856  0.49729465  0.50315072  1
  C  C223  1  0.55271276  0.49585130  0.48920313  1
  C  C224  1  0.55463226  0.46782318  0.47661681  1
  C  C225  1  0.52932999  0.44424516  0.47549817  1
  C  C226  1  0.44719084  0.57372001  0.54473487  1
  C  C227  1  0.44406729  0.54438446  0.55661927  1
  C  C228  1  0.46952728  0.51931147  0.55835084  1
  C  C229  1  0.49788556  0.52050005  0.54721308  1
  C  C230  1  0.50014331  0.54736847  0.53358198  1
  C  C231  1  0.47490557  0.57439857  0.53222237  1
  C  C232  1  0.63723471  0.53881029  0.55351565  1
  C  C233  1  0.63392898  0.50777696  0.54358315  1
  C  C234  1  0.60524169  0.50431522  0.53148517  1
  C  C235  1  0.57755036  0.52784240  0.53382562  1
  C  C236  1  0.57911979  0.55359649  0.54792553  1
  C  C237  1  0.85221733  0.41696355  0.62866564  1
  C  C238  1  0.87012356  0.38555518  0.63010732  1
  C  C239  1  0.90308631  0.37914426  0.63898527  1
  C  C240  1  0.91840059  0.34544147  0.63862959  1
  C  C241  1  0.95033691  0.33827315  0.64607691  1
  C  C242  1  0.96842900  0.36448018  0.65476631  1
  C  C243  1  0.95405116  0.39790296  0.65578410  1
  C  C244  1  0.92207863  0.40502637  0.64823619  1
  C  C245  1  0.01447431  0.32400285  0.66328847  1
  C  C246  1  0.04702760  0.32507343  0.67451220  1
  C  C247  1  0.07621111  0.33279231  0.66438482  1
  C  C248  1  0.10562622  0.33673221  0.67556911  1
  C  C249  1  0.10685505  0.33387182  0.69637060  1
  C  C250  1  0.07752983  0.32563366  0.70614267  1
  C  C251  1  0.04773274  0.32081118  0.69535500  1
  C  C252  1  0.01608120  0.31174491  0.70523172  1
  C  C253  1  0.07671153  0.33532091  0.64223279  1
  C  C254  1  0.13911699  0.34080712  0.70690331  1
  C  C255  1  0.13609626  0.34790490  0.66561227  1
  C  C256  1  0.16821042  0.39722104  0.66250732  1
  C  C257  1  0.18946239  0.37561189  0.65168534  1
  C  C258  1  0.21950803  0.38758807  0.64597561  1
  C  C259  1  0.22870061  0.42170864  0.65075839  1
  C  C260  1  0.20619516  0.44374909  0.66102596  1
  C  C261  1  0.17609306  0.43142820  0.66693006  1
  C  C262  1  0.26011548  0.43172839  0.64455950  1
  C  C263  1  0.28106184  0.40862374  0.63485220  1
  C  C264  1  0.07891434  0.32247576  0.72824250  1
  C  C265  1  0.08796592  0.27938769  0.75328653  1
  C  C266  1  0.07996827  0.30422018  0.76741224  1
  C  C267  1  0.07342702  0.29386863  0.78661067  1
  C  C268  1  0.07537143  0.25839616  0.79270929  1
  C  C269  1  0.08457043  0.23404188  0.77801599  1
  C  C270  1  0.09119029  0.24443180  0.75876184  1
  C  C271  1  0.06852329  0.24815347  0.81284312  1
  C  C272  1  0.06967598  0.21411681  0.81987522  1
  C  C273  1  0.67260901  0.83893094  0.40288157  1
  C  C274  1  0.69975346  0.85994539  0.40535222  1
  C  C275  1  0.70925589  0.88938630  0.39307826  1
  C  C276  1  0.73779293  0.90819946  0.39826395  1
  C  C277  1  0.74773901  0.93699839  0.38750729  1
  C  C278  1  0.72948833  0.94851507  0.37086997  1
  C  C279  1  0.70179164  0.93011656  0.36484937  1
  C  C280  1  0.69177576  0.90134243  0.37573305  1
  C  C281  1  0.76418957  -0.00117918  0.36716062  1
  C  C282  1  0.76551998  0.03011369  0.35365059  1
  C  C283  1  0.78453329  0.02842177  0.33635289  1
  C  C284  1  0.78274197  0.05662926  0.32278204  1
  C  C285  1  0.76233702  0.08631673  0.32608083  1
  C  C286  1  0.74378632  0.08739576  0.34350328  1
  C  C287  1  0.74551429  0.05998637  0.35756950  1
  C  C288  1  0.72642983  0.06121963  0.37638821  1
  C  C289  1  0.80739546  -0.00218481  0.33262995  1
  C  C290  1  0.76056377  0.11475158  0.31060716  1
  C  C291  1  0.80110861  0.05476030  0.30385360  1
  C  C292  1  0.79106143  0.04753602  0.26956909  1
  C  C293  1  0.82504050  0.05134766  0.26704417  1
  C  C294  1  0.83785098  0.05292466  0.24822402  1
  C  C295  1  0.81732339  0.05006452  0.23115533  1
  C  C296  1  0.78284251  0.04573842  0.23431055  1
  C  C297  1  0.76994767  0.04422725  0.25316055  1
  C  C298  1  0.83074543  0.05111301  0.21157777  1
  C  C299  1  0.86401534  0.05451146  0.20722197  1
  C  C300  1  0.72239660  0.11903590  0.34670956  1
  C  C301  1  0.72518612  0.17410167  0.36052199  1
  C  C302  1  0.69117174  0.17841302  0.35601662  1
  C  C303  1  0.67307622  0.20466979  0.36475201  1
  C  C304  1  0.68856957  0.22782393  0.37780381  1
  C  C305  1  0.72326914  0.22346666  0.38163267  1
  C  C306  1  0.74141280  0.19708664  0.37280703  1
  C  C307  1  0.66978188  0.25479447  0.38678755  1
  C  C308  1  0.68354283  0.27800380  0.39971219  1
  C  C309  1  0.79896577  0.68651585  0.62992190  1
  C  C310  1  0.81629593  0.66912536  0.64510459  1
  C  C311  1  0.84874956  0.67733595  0.65167776  1
  C  C312  1  0.86501801  0.65730580  0.66689578  1
  C  C313  1  0.89671010  0.66463964  0.67322758  1
  C  C314  1  0.91294213  0.69239939  0.66449620  1
  C  C315  1  0.89776296  0.71248916  0.64933230  1
  C  C316  1  0.86599124  0.70517025  0.64297886  1
  C  C317  1  0.95762188  0.68299898  0.68783923  1
  C  C318  1  0.98939115  0.70027975  0.69271242  1
  C  C319  1  0.01843275  0.68988099  0.68276240  1
  C  C320  1  0.04723242  0.70934066  0.68535868  1
  C  C321  1  0.04685373  0.73864735  0.69775205  1
  C  C322  1  0.01718146  0.74910928  0.70706672  1
  C  C323  1  0.98810987  0.73004503  0.70470242  1
  C  C324  1  0.95568142  0.74028410  0.71394637  1
  C  C325  1  0.01887870  0.65785579  0.67035113  1
  C  C326  1  0.07840442  0.75802380  0.69990854  1
  C  C327  1  0.07884749  0.69893723  0.67525427  1
  C  C328  1  0.11544811  0.71744994  0.64984270  1
  C  C329  1  0.13656481  0.68901805  0.65442864  1
  C  C330  1  0.16693030  0.68485185  0.64508974  1
  C  C331  1  0.17743955  0.70841395  0.63036278  1
  C  C332  1  0.15521584  0.73718163  0.62615536  1
  C  C333  1  0.12481540  0.74139738  0.63544869  1
  C  C334  1  0.20866113  0.70381802  0.61993780  1
  C  C335  1  0.23184585  0.67645938  0.62223451  1
  C  C336  1  0.01703936  0.78094382  0.71959687  1
  C  C337  1  0.02534446  0.79662376  0.75302607  1
  C  C338  1  0.01640048  0.83103242  0.74796715  1
  C  C339  1  0.00972621  0.85476193  0.76266234  1
  C  C340  1  0.01241460  0.84539629  0.78299152  1
  C  C341  1  0.02209387  0.81030104  0.78755399  1
  C  C342  1  0.02891927  0.78655096  0.77281576  1
  C  C343  1  0.00609907  0.87060791  0.79809228  1
  C  C344  1  0.00832482  0.86307804  0.81814849  1
  C  C345  1  0.38088496  0.79285445  0.39563979  1
  C  C346  1  0.34965579  0.80826130  0.39694246  1
  C  C347  1  0.34298314  0.84247505  0.38976287  1
  C  C348  1  0.31109986  0.85857928  0.39121032  1
  C  C349  1  0.30523812  0.89206930  0.38434230  1
  C  C350  1  0.33123851  0.91004693  0.37583808  1
  C  C351  1  0.36303164  0.89495903  0.37435276  1
  C  C352  1  0.36904378  0.86145672  0.38130792  1
  C  C353  1  0.29250828  0.95638195  0.36830192  1
  C  C354  1  0.29324258  0.99011779  0.35726790  1
  C  C355  1  0.30329416  0.01991895  0.36737621  1
  C  C356  1  0.30888092  0.05045086  0.35634679  1
  C  C357  1  0.30436019  0.05091724  0.33556445  1
  C  C358  1  0.29545332  0.02031199  0.32580352  1
  C  C359  1  0.28986292  0.98944274  0.33647606  1
  C  C360  1  0.28127832  0.95583773  0.32682322  1
  C  C361  1  0.30631242  0.01935182  0.38951622  1
  C  C362  1  0.31028836  0.08437386  0.32476883  1
  C  C363  1  0.31889944  0.08308371  0.36649238  1
  C  C364  1  0.36483259  0.12070300  0.37064368  1
  C  C365  1  0.34474240  0.14290029  0.38170346  1
  C  C366  1  0.35666237  0.17425512  0.38844271  1
  C  C367  1  0.38947552  0.18458784  0.38484079  1
  C  C368  1  0.40919016  0.16125953  0.37350370  1
  C  C369  1  0.39736837  0.12988722  0.36677204  1
  C  C370  1  0.40295542  0.21668053  0.39223416  1
  C  C371  1  0.38736736  0.24113552  0.40412232  1
  C  C372  1  0.29144272  0.02100327  0.30378268  1
  C  C373  1  0.24950433  0.02902619  0.27923504  1
  C  C374  1  0.27312078  0.02007315  0.26515196  1
  C  C375  1  0.26302554  0.01296597  0.24604793  1
  C  C376  1  0.22914988  0.01564645  0.24005653  1
  C  C377  1  0.20585565  0.02521744  0.25471740  1
  C  C378  1  0.21597385  0.03215658  0.27393070  1
  C  C379  1  0.21942593  0.00943584  0.21991618  1
  C  C380  1  0.18701586  0.01200194  0.21280651  1
  C  C381  1  0.66144801  0.48390215  0.54781964  1
  C  C382  1  0.68615419  0.47576441  0.55818997  1
  C  C383  1  0.71386525  0.46668485  0.57094333  1
  C  C384  1  0.72146989  0.48411590  0.58871579  1
  C  C385  1  0.74812253  0.47390822  0.60097481  1
  C  C386  1  0.76977008  0.44537249  0.59650076  1
  C  C387  1  0.76200980  0.42830921  0.57866604  1
  C  C388  1  0.73553692  0.43863768  0.56645823  1
  C  C389  1  0.79783889  0.43377889  0.60828636  1
  C  C390  1  0.82281697  0.42311016  0.61763846  1
  C  C391  1  0.58436694  0.46273554  0.46538526  1
  C  C392  1  0.59857911  0.43907422  0.45676611  1
  C  C393  1  0.61132584  0.40950094  0.44737667  1
  C  C394  1  0.60398775  0.40725559  0.42700542  1
  C  C395  1  0.61722955  0.37998445  0.41700337  1
  C  C396  1  0.63577514  0.35387851  0.42779652  1
  C  C397  1  0.63889969  0.35406392  0.44873276  1
  C  C398  1  0.62564121  0.38155885  0.45863319  1
  C  C399  1  0.65082100  0.32684167  0.41739784  1
  C  C400  1  0.66447288  0.30331117  0.40839859  1
  C  C401  1  0.42050464  0.59899974  0.54743503  1
  C  C402  1  0.39591281  0.60901218  0.55675089  1
  C  C403  1  0.36832908  0.62041024  0.56833829  1
  C  C404  1  0.33839860  0.60226487  0.56967975  1
  C  C405  1  0.31180834  0.61436644  0.58065794  1
  C  C406  1  0.31257513  0.64571152  0.59145525  1
  C  C407  1  0.34367076  0.66201765  0.59146777  1
  C  C408  1  0.37017333  0.64985599  0.58046444  1
  C  C409  1  0.28445551  0.65923818  0.60176564  1
  C  C410  1  0.25955897  0.67014366  0.61042046  1
  C  C411  1  0.58876928  0.65468927  0.48322339  1
  C  C412  1  0.59981926  0.67887506  0.47347891  1
  C  C413  1  0.61184694  0.70616445  0.46129025  1
  C  C414  1  0.59182426  0.73478995  0.45431501  1
  C  C415  1  0.60432952  0.76101401  0.44262938  1
  C  C416  1  0.63805083  0.76099718  0.43682572  1
  C  C417  1  0.65730260  0.73109313  0.44283726  1
  C  C418  1  0.64475281  0.70502721  0.45454085  1
  C  C419  1  0.65183962  0.78844314  0.42557563  1
  C  C420  1  0.66374532  0.81236944  0.41592917  1
  C  C421  1  0.47724126  0.42247706  0.48300471  1
  C  C422  1  0.46493808  0.39936313  0.47304944  1
  C  C423  1  0.45172780  0.37320312  0.46060106  1
  C  C424  1  0.45611271  0.33729935  0.46488468  1
  C  C425  1  0.44316063  0.31213139  0.45283735  1
  C  C426  1  0.42562414  0.32029221  0.43491618  1
  C  C427  1  0.42178859  0.35633792  0.43043963  1
  C  C428  1  0.43478693  0.38147784  0.44257025  1
  C  C429  1  0.41315575  0.29346992  0.42278637  1
  C  C430  1  0.40309419  0.26886388  0.41308899  1
  C  C431  1  0.46341757  0.49085189  0.57154388  1
  C  C432  1  0.43920406  0.48045251  0.58004304  1
  C  C433  1  0.40943626  0.47069364  0.58825877  1
  C  C434  1  0.39931772  0.43700872  0.58349744  1
  C  C435  1  0.37354479  0.42438882  0.59360333  1
  C  C436  1  0.35732599  0.44688178  0.60705783  1
  C  C437  1  0.36311751  0.48300199  0.60830977  1
  C  C438  1  0.38930503  0.49533923  0.59828993  1
  C  C439  1  0.33308711  0.43141968  0.61817666  1
  C  C440  1  0.30970655  0.42027023  0.62720823  1
  C  C441  1  0.48300429  0.61097355  0.46625670  1
  C  C442  1  0.46878291  0.63387405  0.45636932  1
  C  C443  1  0.45416166  0.66153302  0.44550076  1
  C  C444  1  0.43908731  0.65300748  0.42738266  1
  C  C445  1  0.42218092  0.67864255  0.41711455  1
  C  C446  1  0.42167323  0.71258539  0.42489729  1
  C  C447  1  0.43998515  0.72171830  0.44209569  1
  C  C448  1  0.45663084  0.69593518  0.45244117  1
  C  C449  1  0.40323410  0.73806833  0.41429859  1
  C  C450  1  0.38934232  0.76243303  0.40543985  1
  C  C451  1  0.61451085  0.58857042  0.56989645  1
  C  C452  1  0.63772541  0.60179961  0.57855583  1
  C  C453  1  0.66617553  0.61562093  0.58721914  1
  C  C454  1  0.68839578  0.59417304  0.59869948  1
  C  C455  1  0.71502997  0.60896298  0.60752058  1
  C  C456  1  0.72010550  0.64495117  0.60427832  1
  C  C457  1  0.69983422  0.66498879  0.59076097  1
  C  C458  1  0.67358151  0.64991608  0.58177695  1
  C  C459  1  0.74641783  0.66113168  0.61374628  1
  C  C460  1  0.77051642  0.67332445  0.62206295  1
  C  C461  1  0.96603078  0.03125078  0.08215125  1
  C  C462  1  0.95298462  0.03389384  0.09840061  1
  C  C463  1  0.93960594  0.03797345  0.11750577  1
  C  C464  1  0.94013614  0.07005296  0.12741597  1
  C  C465  1  0.92521184  0.07438115  0.14541905  1
  C  C466  1  0.90953277  0.04651027  0.15504089  1
  C  C467  1  0.91251321  0.01352380  0.14605594  1
  C  C468  1  0.92737235  0.00938118  0.12807169  1
  C  C469  1  0.89218996  0.05034207  0.17290098  1
  C  C470  1  0.87665301  0.05256543  0.18832938  1
  C  C471  1  0.04571924  0.09650296  0.94343961  1
  C  C472  1  0.04917503  0.11270995  0.92787199  1
  C  C473  1  0.05200846  0.12992637  0.90928466  1
  C  C474  1  0.04384331  0.11473743  0.89094331  1
  C  C475  1  0.04654729  0.13280670  0.87327829  1
  C  C476  1  0.05750891  0.16750707  0.87261293  1
  C  C477  1  0.06602483  0.18221264  0.89098832  1
  C  C478  1  0.06334343  0.16411151  0.90856542  1
  C  C479  1  0.06066660  0.18709424  0.85484564  1
  C  C480  1  0.06400140  0.20322474  0.83919324  1
  C  C481  1  0.08278869  0.03074539  0.08720537  1
  C  C482  1  0.09890853  0.02827726  0.10269486  1
  C  C483  1  0.11501191  0.02442408  0.12127169  1
  C  C484  1  0.11946364  0.99103285  0.13002281  1
  C  C485  1  0.13515615  0.98673887  0.14807878  1
  C  C486  1  0.14694635  0.01578818  0.15839042  1
  C  C487  1  0.14036673  0.04942856  0.15008787  1
  C  C488  1  0.12477250  0.05363537  0.13201776  1
  C  C489  1  0.16394448  0.01218038  0.17673355  1
  C  C490  1  0.17788891  0.01065686  0.19302480  1
  C  C491  1  0.01584757  0.97919254  0.93960174  1
  C  C492  1  0.01252929  0.96300940  0.92429640  1
  C  C493  1  0.01028974  0.94776883  0.90553608  1
  C  C494  1  0.99058136  0.91880121  0.90224487  1
  C  C495  1  0.98878506  0.90404711  0.88390102  1
  C  C496  1  0.00634661  0.91784326  0.86773381  1
  C  C497  1  0.02574369  0.94731629  0.87110752  1
  C  C498  1  0.02749741  0.96197372  0.88940400  1
  C  C499  1  0.00558996  0.90246311  0.84891799  1
  C  C500  1  0.00580287  0.88723740  0.83307946  1
  O  O501  1  0.05892156  0.06456363  0.01531336  1
  O  O502  1  0.99315519  0.00830356  0.01095201  1
  O  O503  1  0.00002613  0.35929034  0.66201283  1
  O  O504  1  0.09299306  0.28855524  0.73412621  1
  O  O505  1  0.13934832  0.38491025  0.66913999  1
  O  O506  1  0.73806532  0.97658553  0.35978447  1
  O  O507  1  0.74308318  0.14707993  0.35319211  1
  O  O508  1  0.77780113  0.04721808  0.28787045  1
  O  O509  1  0.94401558  0.70070591  0.67015497  1
  O  O510  1  0.03116265  0.77231439  0.73904169  1
  O  O511  1  0.08590038  0.72283007  0.65899318  1
  O  O512  1  0.32670196  0.94287281  0.36885024  1
  O  O513  1  0.25861972  0.03502977  0.29825657  1
  O  O514  1  0.35382303  0.09023564  0.36333684  1
