# generated using pymatgen
data_PH91C114NO8
_symmetry_space_group_name_H-M   'P 1'
_cell_length_a   64.06379876
_cell_length_b   28.51485619
_cell_length_c   66.66766873
_cell_angle_alpha   90.02533086
_cell_angle_beta   90.53371477
_cell_angle_gamma   115.77308501
_symmetry_Int_Tables_number   1
_chemical_formula_structural   PH91C114NO8
_chemical_formula_sum   'P2 H182 C228 N2 O16'
_cell_volume   109665.43464678
_cell_formula_units_Z   2
loop_
 _symmetry_equiv_pos_site_id
 _symmetry_equiv_pos_as_xyz
  1  'x, y, z'
loop_
 _atom_site_type_symbol
 _atom_site_label
 _atom_site_symmetry_multiplicity
 _atom_site_fract_x
 _atom_site_fract_y
 _atom_site_fract_z
 _atom_site_occupancy
  P  P0  1  0.04725137  0.08674108  0.65456436  1
  P  P1  1  0.04278443  0.04841251  0.38196634  1
  H  H2  1  0.06268265  0.04429927  0.68573685  1
  H  H3  1  0.04783304  0.95703207  0.70151132  1
  H  H4  1  0.98892745  0.90072920  0.66147513  1
  H  H5  1  0.00182173  0.98864725  0.64751249  1
  H  H6  1  0.06498734  0.19678935  0.65786227  1
  H  H7  1  0.04912231  0.25501176  0.67160581  1
  H  H8  1  0.98587841  0.12111660  0.68668742  1
  H  H9  1  0.00183036  0.06295948  0.67332553  1
  H  H10  1  0.05497027  0.02796760  0.62381615  1
  H  H11  1  0.03750260  -0.00034340  0.58973971  1
  H  H12  1  -0.00287513  0.08646408  0.59718663  1
  H  H13  1  0.01331517  0.11213956  0.63138071  1
  H  H14  1  0.05929042  0.12057792  0.35188812  1
  H  H15  1  0.04702515  0.18235558  0.33577394  1
  H  H16  1  0.98757900  0.13090391  0.37438252  1
  H  H17  1  -0.00045268  0.06874216  0.39019223  1
  H  H18  1  0.06018889  0.97173985  0.37971068  1
  H  H19  1  0.04397003  0.88235131  0.36585704  1
  H  H20  1  0.98168610  0.89508555  0.34828035  1
  H  H21  1  -0.00238760  0.98394787  0.36255450  1
  H  H22  1  0.05299663  0.12035015  0.41340092  1
  H  H23  1  0.03833973  0.11351597  0.44845159  1
  H  H24  1  0.99141999  0.95215449  0.43809111  1
  H  H25  1  0.00845963  0.95627331  0.40458459  1
  H  H26  1  0.04601573  0.58851067  0.72592010  1
  H  H27  1  0.03667195  0.62329278  0.74333669  1
  H  H28  1  0.01026734  0.47460746  0.74239142  1
  H  H29  1  0.98813388  0.46563932  0.72418797  1
  H  H30  1  0.98358628  0.54876437  0.71059136  1
  H  H31  1  0.01156238  0.56210290  0.70084215  1
  H  H32  1  0.99589875  0.58870697  0.75359439  1
  H  H33  1  0.99850123  0.53448137  0.76496612  1
  H  H34  1  0.04265707  0.54596333  0.30945973  1
  H  H35  1  0.03217012  0.49219038  0.29214283  1
  H  H36  1  0.00717233  0.59181976  0.29347325  1
  H  H37  1  0.98515202  0.55814544  0.31143820  1
  H  H38  1  0.98003187  0.46700648  0.32500577  1
  H  H39  1  0.00881725  0.50529893  0.33450763  1
  H  H40  1  0.99245522  0.45045571  0.28086950  1
  H  H41  1  0.99514045  0.51057342  0.27038980  1
  H  H42  1  0.76015810  0.28026866  0.14184332  1
  H  H43  1  0.75169251  0.16663301  0.13311241  1
  H  H44  1  0.72410080  0.12355772  0.10474909  1
  H  H45  1  0.70235770  0.12793038  0.07498141  1
  H  H46  1  0.72246910  0.29070892  0.08681102  1
  H  H47  1  0.74462060  0.28709061  0.11648505  1
  H  H48  1  0.67499019  0.14437850  0.05320208  1
  H  H49  1  0.70240173  0.16368563  0.04208256  1
  H  H50  1  0.72818881  0.23200807  0.99803964  1
  H  H51  1  0.71340777  0.17014167  0.00904409  1
  H  H52  1  0.72811571  0.22590016  0.02439515  1
  H  H53  1  0.65505310  0.18071673  0.06223033  1
  H  H54  1  0.63274741  0.14367364  0.04500856  1
  H  H55  1  0.63586801  0.20536673  0.05337867  1
  H  H56  1  0.67235221  0.29436146  0.97071809  1
  H  H57  1  0.65715972  0.30953931  0.98967329  1
  H  H58  1  0.64361334  0.25058766  0.97598150  1
  H  H59  1  0.62331250  0.23056780  0.00340549  1
  H  H60  1  0.62178864  0.21716190  0.02953579  1
  H  H61  1  0.59391823  0.22908157  0.01692447  1
  H  H62  1  0.56229012  0.25443501  0.01456766  1
  H  H63  1  0.60990823  0.41421093  0.02719015  1
  H  H64  1  0.64250774  0.38883640  0.02850137  1
  H  H65  1  0.56906367  0.39375601  0.02191705  1
  H  H66  1  0.53416185  0.27898851  0.01222769  1
  H  H67  1  0.70150400  0.29875116  0.97240687  1
  H  H68  1  0.72183471  0.27712463  0.98109171  1
  H  H69  1  0.72794559  0.32289311  0.95242398  1
  H  H70  1  0.75601595  0.34372079  0.92532427  1
  H  H71  1  0.72338462  0.18352091  0.90523990  1
  H  H72  1  0.69540512  0.16261168  0.93292680  1
  H  H73  1  0.77205598  0.32335447  0.89815829  1
  H  H74  1  0.75258580  0.21132760  0.88077813  1
  H  H75  1  0.26287004  0.85884936  0.89372438  1
  H  H76  1  0.23675334  0.74075425  0.90254482  1
  H  H77  1  0.24580007  0.70144667  0.92822793  1
  H  H78  1  0.26836898  0.69978629  0.95781553  1
  H  H79  1  0.31102405  0.86484230  0.95191793  1
  H  H80  1  0.28829864  0.86687512  0.92202880  1
  H  H81  1  0.29462843  0.70576938  0.97764551  1
  H  H82  1  0.27553499  0.72595952  0.98995331  1
  H  H83  1  0.28148768  0.80232554  0.03467297  1
  H  H84  1  0.26663003  0.74040761  0.02343301  1
  H  H85  1  0.28044785  0.79645299  0.00828764  1
  H  H86  1  0.32406809  0.71081984  0.97373605  1
  H  H87  1  0.32862610  0.66774952  0.99035326  1
  H  H88  1  0.35173901  0.72810923  0.98399955  1
  H  H89  1  0.35247511  0.80829051  0.06823110  1
  H  H90  1  0.37364859  0.81763991  0.04965418  1
  H  H91  1  0.35950975  0.75705136  0.06172127  1
  H  H92  1  0.36824723  0.72700020  0.03603210  1
  H  H93  1  0.36131286  0.70728165  0.01067155  1
  H  H94  1  0.39053140  0.70292998  0.01714261  1
  H  H95  1  0.42923919  0.70674041  0.01925498  1
  H  H96  1  0.45955059  0.87412835  0.01255830  1
  H  H97  1  0.41989255  0.87018498  0.01056606  1
  H  H98  1  0.48511036  0.83188363  0.01663152  1
  H  H99  1  0.46379596  0.70981065  0.02053997  1
  H  H100  1  0.33230080  0.84590373  0.06160658  1
  H  H101  1  0.30352648  0.82995055  0.05396813  1
  H  H102  1  0.31241698  0.87683281  0.08415942  1
  H  H103  1  0.29309701  0.89646996  0.11225503  1
  H  H104  1  0.26368826  0.73442949  0.12992363  1
  H  H105  1  0.28381511  0.71598884  0.10212912  1
  H  H106  1  0.26403001  0.86617412  0.14046985  1
  H  H107  1  0.25174983  0.75355987  0.15412074  1
  H  H108  1  0.93680175  0.44593493  0.80903277  1
  H  H109  1  0.90294623  0.39916620  0.82954198  1
  H  H110  1  0.85964747  0.41729571  0.78254082  1
  H  H111  1  0.89419731  0.46407130  0.76252665  1
  H  H112  1  0.83184333  0.37578908  0.79863385  1
  H  H113  1  0.79818380  0.33022147  0.81958411  1
  H  H114  1  0.84157396  0.31255699  0.86565398  1
  H  H115  1  0.87556318  0.35782353  0.84515938  1
  H  H116  1  0.93062437  0.36850573  0.22797852  1
  H  H117  1  0.89716860  0.32874345  0.20582657  1
  H  H118  1  0.85887874  0.38463698  0.24486643  1
  H  H119  1  0.89293857  0.42378215  0.26667385  1
  H  H120  1  0.83150551  0.35239913  0.22665217  1
  H  H121  1  0.79831694  0.31339502  0.20403207  1
  H  H122  1  0.83661096  0.25838642  0.16579807  1
  H  H123  1  0.87016527  0.29690478  0.18798043  1
  H  H124  1  0.12029847  0.68499666  0.76402699  1
  H  H125  1  0.15431113  0.73045556  0.78524316  1
  H  H126  1  0.11874981  0.62725071  0.83429364  1
  H  H127  1  0.08498654  0.58351698  0.81246882  1
  H  H128  1  0.14481616  0.66701536  0.85231788  1
  H  H129  1  0.17848274  0.71265319  0.87376937  1
  H  H130  1  0.21404347  0.81490618  0.82536303  1
  H  H131  1  0.18060877  0.77019621  0.80340666  1
  H  H132  1  0.08085717  0.66786095  0.23209419  1
  H  H133  1  0.11480875  0.71164660  0.21119862  1
  H  H134  1  0.15355800  0.65667144  0.25077737  1
  H  H135  1  0.11924460  0.61389873  0.27120605  1
  H  H136  1  0.18091670  0.69037123  0.23367325  1
  H  H137  1  0.21440550  0.73091867  0.21211263  1
  H  H138  1  0.17631168  0.78591279  0.17302724  1
  H  H139  1  0.14234633  0.74575973  0.19415705  1
  H  H140  1  0.53164607  0.61380383  0.04005593  1
  H  H141  1  0.54220461  0.53400650  0.03922778  1
  H  H142  1  0.51508930  0.49772437  0.98309055  1
  H  H143  1  0.50564321  0.57868478  0.98390113  1
  H  H144  1  0.46995138  0.52428895  0.03472726  1
  H  H145  1  0.47968275  0.44319957  0.03282787  1
  H  H146  1  -0.01104172  0.20702154  0.69300894  1
  H  H147  1  0.03876695  0.29264773  0.69742783  1
  H  H148  1  0.00064359  0.31500737  0.68168753  1
  H  H149  1  -0.00536105  0.29766141  0.70699508  1
  H  H150  1  0.04684707  0.47589835  0.70435262  1
  H  H151  1  -0.00357213  0.39135399  0.70252778  1
  H  H152  1  0.03439239  0.36760804  0.71686629  1
  H  H153  1  0.04027519  0.38493445  0.69156002  1
  H  H154  1  0.03513675  0.86817045  0.67441033  1
  H  H155  1  -0.00578270  0.83039328  0.70382511  1
  H  H156  1  0.01059095  0.77009248  0.67622866  1
  H  H157  1  0.02988573  0.79421037  0.69659196  1
  H  H158  1  0.97681313  0.62186260  0.71532504  1
  H  H159  1  0.01774343  0.69819054  0.69048000  1
  H  H160  1  -0.00185580  0.74407298  0.72070034  1
  H  H161  1  0.97786508  0.72071139  0.70085011  1
  H  H162  1  0.98578006  0.81785872  0.33924696  1
  H  H163  1  0.03510746  0.82570332  0.34089147  1
  H  H164  1  0.99324134  0.72849935  0.35113190  1
  H  H165  1  0.99297519  0.73878096  0.32515866  1
  H  H166  1  0.04096191  0.65474381  0.33819787  1
  H  H167  1  0.99215877  0.64652479  0.32960788  1
  H  H168  1  0.03351460  0.74443930  0.32279075  1
  H  H169  1  0.03354522  0.73317959  0.34868108  1
  H  H170  1  0.02218136  0.21072826  0.32837091  1
  H  H171  1  0.98152006  0.20597450  0.35332537  1
  H  H172  1  0.02100662  0.30332070  0.35254149  1
  H  H173  1  0.01837921  0.28813545  0.32686348  1
  H  H174  1  0.97720714  0.38999033  0.33738208  1
  H  H175  1  0.02265914  0.37967483  0.32995062  1
  H  H176  1  0.97834244  0.28550135  0.32633085  1
  H  H177  1  0.98132381  0.30199639  0.35198382  1
  H  H178  1  0.97392364  0.01166277  0.50591991  1
  H  H179  1  0.97342413  0.00385361  0.46866814  1
  H  H180  1  0.04778897  0.05833268  0.46956310  1
  H  H181  1  0.04980051  0.05443060  0.56534263  1
  H  H182  1  0.04797226  0.06146536  0.50696376  1
  H  H183  1  0.97865925  0.03313405  0.56782937  1
  C  C184  1  0.03362298  0.02178159  0.66530124  1
  C  C185  1  0.04610822  0.01330123  0.68106156  1
  C  C186  1  0.03855025  0.96368635  0.68887179  1
  C  C187  1  0.02000132  0.92104090  0.67983136  1
  C  C188  1  0.00529629  0.93178686  0.66669437  1
  C  C189  1  0.01213565  0.98163113  0.65915869  1
  C  C190  1  0.03487495  0.12638652  0.66558761  1
  C  C191  1  0.04793560  0.18061661  0.66469468  1
  C  C192  1  0.03903365  0.21296731  0.67263037  1
  C  C193  1  0.01686000  0.19230541  0.68151900  1
  C  C194  1  0.00344399  0.13777471  0.68085708  1
  C  C195  1  0.01225239  0.10495609  0.67327082  1
  C  C196  1  0.03517529  0.07165319  0.62940885  1
  C  C197  1  0.04224048  0.04011285  0.61783996  1
  C  C198  1  0.03332853  0.02645992  0.59865476  1
  C  C199  1  0.01766851  0.04460651  0.59092844  1
  C  C200  1  0.00945773  0.07292863  0.60311165  1
  C  C201  1  0.01851053  0.08742378  0.62229809  1
  C  C202  1  0.03015982  0.08964554  0.37177328  1
  C  C203  1  0.04329409  0.12196720  0.35641472  1
  C  C204  1  0.03628468  0.15646398  0.34733769  1
  C  C205  1  0.01597289  0.16045123  0.35298779  1
  C  C206  1  0.00307498  0.12844365  0.36893558  1
  C  C207  1  0.00982755  0.09317211  0.37803434  1
  C  C208  1  0.03054966  0.98462040  0.37074301  1
  C  C209  1  0.04327965  0.95516713  0.37230748  1
  C  C210  1  0.03429964  0.90549325  0.36414874  1
  C  C211  1  0.01257561  0.88403737  0.35408102  1
  C  C212  1  -0.00079434  0.91247476  0.35452654  1
  C  C213  1  0.00796507  0.96215619  0.36262656  1
  C  C214  1  0.03108517  0.03909887  0.40694469  1
  C  C215  1  0.03968171  0.08394725  0.41903400  1
  C  C216  1  0.03170880  0.07995255  0.43838588  1
  C  C217  1  0.01421802  0.03275559  0.44520923  1
  C  C218  1  0.00482091  0.98890744  0.43268947  1
  C  C219  1  0.01392848  0.99129089  0.41371625  1
  C  C220  1  0.00233971  0.56808405  0.71373785  1
  C  C221  1  0.00897944  0.54738857  0.73309772  1
  C  C222  1  0.99442886  0.54934891  0.75092698  1
  C  C223  1  0.03425859  0.58431529  0.73837135  1
  C  C224  1  0.00599731  0.49128381  0.72895629  1
  C  C225  1  0.99861073  0.48193884  0.32164104  1
  C  C226  1  0.00521673  0.51554347  0.30235943  1
  C  C227  1  0.99067653  0.48643819  0.28401597  1
  C  C228  1  0.03039210  0.52713842  0.29704505  1
  C  C229  1  0.00282748  0.56643287  0.30673867  1
  C  C230  1  0.76357462  0.24580601  0.14235262  1
  C  C231  1  0.75111540  0.20355354  0.12989788  1
  C  C232  1  0.73710848  0.20526345  0.11300312  1
  C  C233  1  0.72427850  0.16083932  0.10076964  1
  C  C234  1  0.71189048  0.16322146  0.08382817  1
  C  C235  1  0.71166263  0.21049421  0.07838255  1
  C  C236  1  0.72316470  0.25424863  0.09067902  1
  C  C237  1  0.73569613  0.25189475  0.10750419  1
  C  C238  1  0.68971131  0.17790560  0.04665346  1
  C  C239  1  0.68194218  0.20147312  0.02946084  1
  C  C240  1  0.66125620  0.20754831  0.03141095  1
  C  C241  1  0.65489428  0.23319319  0.01607230  1
  C  C242  1  0.66837428  0.25106572  0.99852255  1
  C  C243  1  0.68866707  0.24360221  0.99648401  1
  C  C244  1  0.69562735  0.21921146  0.01198894  1
  C  C245  1  0.71735618  0.21165295  0.01074252  1
  C  C246  1  0.64558346  0.18359166  0.04886558  1
  C  C247  1  0.66014374  0.27769083  0.98298560  1
  C  C248  1  0.63323334  0.24108895  0.01765245  1
  C  C249  1  0.62052077  0.30779098  0.02201733  1
  C  C250  1  0.59786285  0.27009513  0.01861509  1
  C  C251  1  0.57972148  0.28459224  0.01765260  1
  C  C252  1  0.58371126  0.33660526  0.02052688  1
  C  C253  1  0.60661869  0.37384925  0.02464629  1
  C  C254  1  0.62487809  0.35970623  0.02535448  1
  C  C255  1  0.56459125  0.35257732  0.01943250  1
  C  C256  1  0.54283768  0.32013251  0.01569254  1
  C  C257  1  0.70325698  0.26438351  0.97800777  1
  C  C258  1  0.71104116  0.24017137  0.94554042  1
  C  C259  1  0.72740813  0.29163326  0.94270267  1
  C  C260  1  0.74291521  0.30371341  0.92701653  1
  C  C261  1  0.74256013  0.26562822  0.91317399  1
  C  C262  1  0.72478326  0.21425935  0.91566036  1
  C  C263  1  0.70907793  0.20211349  0.93138308  1
  C  C264  1  0.76000605  0.28211716  0.89773146  1
  C  C265  1  0.76365506  0.25296277  0.88265285  1
  C  C266  1  0.25024783  0.81813667  0.89253767  1
  C  C267  1  0.25010084  0.78001106  0.90556804  1
  C  C268  1  0.26477680  0.78397066  0.92271123  1
  C  C269  1  0.25999948  0.73755268  0.93343400  1
  C  C270  1  0.27256201  0.73675661  0.95034577  1
  C  C271  1  0.29046832  0.78297975  0.95742822  1
  C  C272  1  0.29643900  0.82928330  0.94673360  1
  C  C273  1  0.28367264  0.83009436  0.92979051  1
  C  C274  1  0.29392959  0.73727068  0.98669098  1
  C  C275  1  0.30853378  0.74697004  0.00540508  1
  C  C276  1  0.32748997  0.73437942  0.00522680  1
  C  C277  1  0.34174861  0.74618018  0.02253122  1
  C  C278  1  0.33846903  0.77266805  0.03928788  1
  C  C279  1  0.31901775  0.78386589  0.03950595  1
  C  C280  1  0.30383544  0.76999713  0.02266816  1
  C  C281  1  0.28217398  0.77794790  0.02228031  1
  C  C282  1  0.33314932  0.70919112  0.98751423  1
  C  C283  1  0.35673425  0.78977031  0.05554253  1
  C  C284  1  0.36315341  0.73781175  0.02156449  1
  C  C285  1  0.40303133  0.78695844  0.01471089  1
  C  C286  1  0.40550885  0.74079006  0.01654827  1
  C  C287  1  0.42755481  0.74293050  0.01741206  1
  C  C288  1  0.44727817  0.79080005  0.01621771  1
  C  C289  1  0.44434365  0.83683536  0.01358041  1
  C  C290  1  0.42230012  0.83487223  0.01253921  1
  C  C291  1  0.47070877  0.79311292  0.01758548  1
  C  C292  1  0.47453778  0.75152274  0.02007734  1
  C  C293  1  0.31567491  0.81313292  0.05723972  1
  C  C294  1  0.29784427  0.79386788  0.09029793  1
  C  C295  1  0.30112192  0.84514364  0.09376854  1
  C  C296  1  0.29032987  0.85629989  0.10988535  1
  C  C297  1  0.27576602  0.81696217  0.12322989  1
  C  C298  1  0.27414848  0.76623411  0.12002924  1
  C  C299  1  0.28533151  0.75531294  0.10415959  1
  C  C300  1  0.26285521  0.82700109  0.13898918  1
  C  C301  1  0.24934693  0.78917578  0.15248233  1
  C  C302  1  0.95667704  0.50620906  0.76291918  1
  C  C303  1  0.93784220  0.48326800  0.77181136  1
  C  C304  1  0.91804124  0.45745306  0.78395897  1
  C  C305  1  0.91968267  0.43886106  0.80325966  1
  C  C306  1  0.90030385  0.41225135  0.81481636  1
  C  C307  1  0.87782985  0.40242347  0.80784802  1
  C  C308  1  0.87628951  0.42238397  0.78871331  1
  C  C309  1  0.89578787  0.44901061  0.77721620  1
  C  C310  1  0.85715742  0.37333724  0.82018076  1
  C  C311  1  0.83458193  0.36328269  0.81344673  1
  C  C312  1  0.81532102  0.33732035  0.82528636  1
  C  C313  1  0.81715502  0.31962837  0.84478194  1
  C  C314  1  0.83964866  0.32748940  0.85102807  1
  C  C315  1  0.85891477  0.35341312  0.83925312  1
  C  C316  1  0.79787056  0.29517118  0.85746811  1
  C  C317  1  0.78173446  0.27563145  0.86929490  1
  C  C318  1  0.95287850  0.44638861  0.27136093  1
  C  C319  1  0.93414680  0.42482059  0.26183833  1
  C  C320  1  0.91451216  0.40001321  0.24895899  1
  C  C321  1  0.91477134  0.37201146  0.23156519  1
  C  C322  1  0.89557218  0.34935522  0.21903105  1
  C  C323  1  0.87463323  0.35283116  0.22307113  1
  C  C324  1  0.87434280  0.38035851  0.24068558  1
  C  C325  1  0.89361264  0.40288548  0.25316649  1
  C  C326  1  0.85422035  0.32882157  0.20953345  1
  C  C327  1  0.83318421  0.33200485  0.21340693  1
  C  C328  1  0.81419062  0.30989870  0.20057776  1
  C  C329  1  0.81475609  0.28296583  0.18289308  1
  C  C330  1  0.83564643  0.27916614  0.17924165  1
  C  C331  1  0.85467453  0.30125768  0.19199393  1
  C  C332  1  0.79599106  0.26244600  0.16899110  1
  C  C333  1  0.78017111  0.24834262  0.15644893  1
  C  C334  1  0.06237986  0.59586009  0.76296407  1
  C  C335  1  0.07907977  0.60953801  0.77498849  1
  C  C336  1  0.09952354  0.63294985  0.78703010  1
  C  C337  1  0.12000824  0.67350457  0.77967950  1
  C  C338  1  0.13927304  0.69899818  0.79185255  1
  C  C339  1  0.13948045  0.68485058  0.81220063  1
  C  C340  1  0.11948427  0.64175110  0.81909274  1
  C  C341  1  0.10020656  0.61660567  0.80682940  1
  C  C342  1  0.15970338  0.71304633  0.82550191  1
  C  C343  1  0.15984363  0.69878140  0.84583660  1
  C  C344  1  0.17888616  0.72462755  0.85817355  1
  C  C345  1  0.19932249  0.76673143  0.85121436  1
  C  C346  1  0.19883616  0.78196447  0.83110604  1
  C  C347  1  0.17974924  0.75612213  0.81869301  1
  C  C348  1  0.21889147  0.79157880  0.86392613  1
  C  C349  1  0.23390262  0.80510747  0.87719132  1
  C  C350  1  0.06010329  0.58220347  0.27529788  1
  C  C351  1  0.07694240  0.60884181  0.26450184  1
  C  C352  1  0.09714270  0.63613352  0.25295271  1
  C  C353  1  0.09691371  0.66529714  0.23595266  1
  C  C354  1  0.11634603  0.69016635  0.22417638  1
  C  C355  1  0.13750515  0.68778832  0.22868080  1
  C  C356  1  0.13788394  0.65974964  0.24611117  1
  C  C357  1  0.11842736  0.63512365  0.25782595  1
  C  C358  1  0.15814685  0.71334702  0.21589326  1
  C  C359  1  0.17928589  0.71091403  0.22043618  1
  C  C360  1  0.19843960  0.73384836  0.20822324  1
  C  C361  1  0.19794400  0.76079309  0.19053159  1
  C  C362  1  0.17710755  0.76460603  0.18637355  1
  C  C363  1  0.15787378  0.74165009  0.19852198  1
  C  C364  1  0.21685608  0.78053954  0.17710288  1
  C  C365  1  0.23289337  0.79242778  0.16514418  1
  C  C366  1  0.50272121  0.57178914  0.01773204  1
  C  C367  1  0.52386910  0.57956502  0.03036644  1
  C  C368  1  0.52927986  0.53911927  0.02990515  1
  C  C369  1  0.51301098  0.49380972  0.01696971  1
  C  C370  1  0.51228102  0.51622347  0.99646587  1
  C  C371  1  0.50708001  0.55687828  0.99686202  1
  C  C372  1  0.48444677  0.52232272  0.02694411  1
  C  C373  1  0.48968826  0.48161543  0.02637746  1
  C  C374  1  0.49697603  0.61542286  0.01808272  1
  C  C375  1  0.49149323  0.65227704  0.01867855  1
  C  C376  1  0.51886935  0.45036587  0.01641954  1
  C  C377  1  0.52457059  0.41377146  0.01625960  1
  C  C378  1  0.00757549  0.22602212  0.69007040  1
  C  C379  1  0.02017198  0.27749477  0.69430776  1
  C  C380  1  0.00905201  0.31372367  0.69617095  1
  C  C381  1  0.02842144  0.45736304  0.70822254  1
  C  C382  1  0.01518600  0.40633380  0.70456047  1
  C  C383  1  0.02593848  0.36925916  0.70246410  1
  C  C384  1  0.02020872  0.86961433  0.68204480  1
  C  C385  1  0.00670222  0.82815105  0.69328296  1
  C  C386  1  0.01140731  0.78142318  0.69224693  1
  C  C387  1  0.99479690  0.64358885  0.71032890  1
  C  C388  1  0.00349738  0.69056034  0.70091229  1
  C  C389  1  0.99635803  0.73337932  0.70460741  1
  C  C390  1  0.00376057  0.83324367  0.34453489  1
  C  C391  1  0.01621096  0.80542369  0.34180258  1
  C  C392  1  0.00474235  0.74787221  0.33837582  1
  C  C393  1  0.02411174  0.64052510  0.33046115  1
  C  C394  1  0.01099047  0.66677665  0.33137005  1
  C  C395  1  0.02191066  0.72422133  0.33539699  1
  C  C396  1  0.01089227  0.19812793  0.34146705  1
  C  C397  1  0.99824602  0.22464513  0.34588348  1
  C  C398  1  0.00806664  0.28146841  0.34069863  1
  C  C399  1  0.99357011  0.39566564  0.33030474  1
  C  C400  1  0.00394878  0.36313624  0.33255034  1
  C  C401  1  0.99133078  0.30680041  0.33812310  1
  C  C402  1  0.01071537  0.03120680  0.46711035  1
  C  C403  1  0.01088029  0.03645693  0.50835919  1
  C  C404  1  0.98962623  0.01627368  0.47706754  1
  C  C405  1  0.03183030  0.04845639  0.47779216  1
  C  C406  1  0.03333046  0.04677767  0.55780007  1
  C  C407  1  0.01168245  0.03893954  0.53008907  1
  C  C408  1  0.03189411  0.04956212  0.49842478  1
  C  C409  1  0.98988072  0.02091726  0.49781550  1
  C  C410  1  0.99376292  0.03624579  0.55925933  1
  C  C411  1  0.01396672  0.03995721  0.56937929  1
  N  N412  1  0.03250339  0.04733548  0.53812395  1
  N  N413  1  0.99224387  0.03337571  0.53959018  1
  O  O414  1  0.07306624  0.11156480  0.65683453  1
  O  O415  1  0.06860654  0.07321706  0.38016328  1
  O  O416  1  1.00974096  0.62399068  0.71484268  1
  O  O417  1  0.96925310  0.51747847  0.74749527  1
  O  O418  1  0.04345135  0.56428360  0.75514262  1
  O  O419  1  0.02146188  0.49413559  0.71250328  1
  O  O420  1  1.00432530  0.43812483  0.31917112  1
  O  O421  1  0.96536980  0.46919522  0.28635863  1
  O  O422  1  0.03892735  0.56294813  0.27972948  1
  O  O423  1  0.01896874  0.59327416  0.32321177  1
  O  O424  1  0.70017743  0.21773598  0.06220982  1
  O  O425  1  0.69665337  0.22615982  0.96166663  1
  O  O426  1  0.63885569  0.29556231  0.02206363  1
  O  O427  1  0.30261578  0.78449814  0.97449959  1
  O  O428  1  0.30690668  0.77871397  0.07449508  1
  O  O429  1  0.38182217  0.78677510  0.01503972  1
