# generated using pymatgen
data_CuH144(C64N3)4
_symmetry_space_group_name_H-M   'P 1'
_cell_length_a   68.04446957
_cell_length_b   67.90194787
_cell_length_c   33.47140851
_cell_angle_alpha   90.28811475
_cell_angle_beta   90.86779854
_cell_angle_gamma   90.17744437
_symmetry_Int_Tables_number   1
_chemical_formula_structural   CuH144(C64N3)4
_chemical_formula_sum   'Cu1 H144 C256 N12'
_cell_volume   154629.21847653
_cell_formula_units_Z   1
loop_
 _symmetry_equiv_pos_site_id
 _symmetry_equiv_pos_as_xyz
  1  'x, y, z'
loop_
 _atom_site_type_symbol
 _atom_site_label
 _atom_site_symmetry_multiplicity
 _atom_site_fract_x
 _atom_site_fract_y
 _atom_site_fract_z
 _atom_site_occupancy
  Cu  Cu0  1  0.50416821  0.50118648  0.50049230  1
  H  H1  1  0.96922448  0.46525215  0.94194900  1
  H  H2  1  0.03741350  0.48427411  0.91933615  1
  H  H3  1  0.03629045  0.48259682  0.97182778  1
  H  H4  1  0.00579542  0.50324361  0.91773162  1
  H  H5  1  0.00558563  0.50432070  0.96994949  1
  H  H6  1  0.00202389  0.46574574  0.92109296  1
  H  H7  1  0.00043530  0.46766405  0.97355673  1
  H  H8  1  0.97496081  0.50548066  0.97382288  1
  H  H9  1  0.95174965  0.49402559  0.96542432  1
  H  H10  1  0.02446171  0.52800101  0.98319080  1
  H  H11  1  0.04957574  0.53443350  0.98783524  1
  H  H12  1  0.02785624  0.52429251  0.90339630  1
  H  H13  1  0.04495671  0.53930919  0.93026398  1
  H  H14  1  0.98473194  0.48548935  0.88149723  1
  H  H15  1  0.96776082  0.50250663  0.90179645  1
  H  H16  1  0.03906444  0.53718953  0.05912985  1
  H  H17  1  0.97086534  0.51811757  0.08175691  1
  H  H18  1  0.97201895  0.51981559  0.02927282  1
  H  H19  1  0.00249091  0.49915033  0.08341808  1
  H  H20  1  0.00271505  0.49807941  0.03119133  1
  H  H21  1  0.00626588  0.53663601  0.08011816  1
  H  H22  1  0.00785768  0.53474161  0.02764986  1
  H  H23  1  0.03331016  0.49694795  0.02733892  1
  H  H24  1  0.05653889  0.50837793  0.03566273  1
  H  H25  1  0.98380920  0.47437939  0.01787729  1
  H  H26  1  0.95868790  0.46798090  0.01322893  1
  H  H27  1  0.98047479  0.47803885  0.09750186  1
  H  H28  1  0.96325820  0.46309937  0.07077711  1
  H  H29  1  0.02364204  0.51697525  0.11972406  1
  H  H30  1  0.04064803  0.49998962  0.09945761  1
  H  H31  1  0.50344374  0.95096828  0.05940782  1
  H  H32  1  0.46879661  0.01302914  0.08034203  1
  H  H33  1  0.46876576  0.01063417  0.02776023  1
  H  H34  1  0.50452571  0.00407385  0.08346349  1
  H  H35  1  0.50579631  0.00412133  0.03127327  1
  H  H36  1  0.48074564  0.97487984  0.07935108  1
  H  H37  1  0.48314047  0.97470722  0.02691624  1
  H  H38  1  0.52785765  0.98279317  0.02644470  1
  H  H39  1  0.53560481  0.95809834  0.03351316  1
  H  H40  1  0.50985674  0.03411006  0.02002474  1
  H  H41  1  0.49741424  0.05680062  0.01653786  1
  H  H42  1  0.50257711  0.03472942  0.10120927  1
  H  H43  1  0.50084617  0.05759465  0.07623051  1
  H  H44  1  0.50643346  0.97494257  0.11981345  1
  H  H45  1  0.52936995  0.98009973  0.09702765  1
  H  H46  1  0.50555492  0.05135933  0.94151156  1
  H  H47  1  0.54023437  0.98927993  0.92064526  1
  H  H48  1  0.54025934  0.99172694  0.97321798  1
  H  H49  1  0.50451123  0.99823704  0.91743891  1
  H  H50  1  0.50321357  0.99820216  0.96962840  1
  H  H51  1  0.52824589  0.02744688  0.92152005  1
  H  H52  1  0.52586468  0.02763042  0.97395988  1
  H  H53  1  0.48117730  0.01952384  0.97453985  1
  H  H54  1  0.47340075  0.04420975  0.96748862  1
  H  H55  1  0.49915617  0.96819263  0.98097653  1
  H  H56  1  0.51163099  0.94551983  0.98445153  1
  H  H57  1  0.50636003  0.96761677  0.89997666  1
  H  H58  1  0.50821520  0.94472049  0.92479139  1
  H  H59  1  0.50256820  0.02745547  0.88105623  1
  H  H60  1  0.47966178  0.02218819  0.90385323  1
  H  H61  1  0.43047119  0.47828152  0.50928878  1
  H  H62  1  0.45156536  0.44462577  0.50532425  1
  H  H63  1  0.52683437  0.42726262  0.49467894  1
  H  H64  1  0.56050541  0.44853491  0.49783763  1
  H  H65  1  0.44789504  0.55354971  0.48954098  1
  H  H66  1  0.48141550  0.57505277  0.49432446  1
  H  H67  1  0.55680053  0.55773802  0.50801729  1
  H  H68  1  0.57809162  0.52420975  0.50510373  1
  H  H69  1  0.19996812  0.56915591  0.57201566  1
  H  H70  1  0.26761816  0.57674984  0.57084573  1
  H  H71  1  0.30448977  0.57586157  0.56610042  1
  H  H72  1  0.29922871  0.56390633  0.43984676  1
  H  H73  1  0.26242178  0.56454648  0.44477667  1
  H  H74  1  0.20357085  0.57069202  0.44413967  1
  H  H75  1  0.16757051  0.57817456  0.32519329  1
  H  H76  1  0.14730346  0.57381708  0.26278630  1
  H  H77  1  0.09617048  0.56342311  0.33441187  1
  H  H78  1  0.11707887  0.56524322  0.39635040  1
  H  H79  1  0.14721484  0.57046387  0.50002051  1
  H  H80  1  0.11335128  0.56413091  0.61026528  1
  H  H81  1  0.09367176  0.56479918  0.67267127  1
  H  H82  1  0.14664951  0.57372864  0.74248206  1
  H  H83  1  0.16600402  0.57488624  0.67975634  1
  H  H84  1  0.43655430  0.19606620  0.56821276  1
  H  H85  1  0.42896553  0.26357450  0.56775989  1
  H  H86  1  0.42995629  0.30057813  0.56301315  1
  H  H87  1  0.44193287  0.29598676  0.43726136  1
  H  H88  1  0.44113425  0.25906246  0.44215785  1
  H  H89  1  0.43501172  0.19995020  0.44022110  1
  H  H90  1  0.42756167  0.16360068  0.32134595  1
  H  H91  1  0.43202077  0.14348069  0.25952762  1
  H  H92  1  0.44236506  0.09223939  0.33225245  1
  H  H93  1  0.44050090  0.11302845  0.39375022  1
  H  H94  1  0.43518417  0.14335634  0.49685112  1
  H  H95  1  0.44143937  0.10954829  0.60804417  1
  H  H96  1  0.44073557  0.08972715  0.67076369  1
  H  H97  1  0.43186445  0.14270072  0.73937758  1
  H  H98  1  0.43079867  0.16219213  0.67626060  1
  H  H99  1  0.80818544  0.43066162  0.42886227  1
  H  H100  1  0.74133236  0.43610011  0.42937085  1
  H  H101  1  0.70455840  0.43841565  0.43353032  1
  H  H102  1  0.70818952  0.42704292  0.56005442  1
  H  H103  1  0.74489124  0.42411811  0.55547422  1
  H  H104  1  0.80470232  0.43225739  0.55678831  1
  H  H105  1  0.83961976  0.43858336  0.67459410  1
  H  H106  1  0.86009269  0.43990400  0.73739959  1
  H  H107  1  0.91197749  0.42828463  0.66893726  1
  H  H108  1  0.89113710  0.42501010  0.60703988  1
  H  H109  1  0.86100785  0.43206988  0.50067970  1
  H  H110  1  0.89497758  0.42406044  0.38808283  1
  H  H111  1  0.91441624  0.42961710  0.32640403  1
  H  H112  1  0.86063110  0.44002823  0.25998843  1
  H  H113  1  0.84152525  0.43524828  0.32224400  1
  H  H114  1  0.57484017  0.80608831  0.43261309  1
  H  H115  1  0.56935015  0.73919745  0.43187557  1
  H  H116  1  0.56693393  0.70230101  0.43619913  1
  H  H117  1  0.57819248  0.70551993  0.56319230  1
  H  H118  1  0.58128271  0.74235074  0.55849147  1
  H  H119  1  0.57324881  0.80224031  0.56050914  1
  H  H120  1  0.56693741  0.83744767  0.67765649  1
  H  H121  1  0.56552573  0.85780114  0.73999735  1
  H  H122  1  0.57731285  0.90992399  0.67150568  1
  H  H123  1  0.58063224  0.88922867  0.61011909  1
  H  H124  1  0.57360927  0.85881836  0.50379535  1
  H  H125  1  0.58168413  0.89281932  0.39074446  1
  H  H126  1  0.57614877  0.91234551  0.32846557  1
  H  H127  1  0.56571144  0.85843861  0.26252693  1
  H  H128  1  0.57044976  0.83924142  0.32536978  1
  H  H129  1  0.40043682  0.54605348  0.44327609  1
  H  H130  1  0.36667158  0.56014502  0.44374355  1
  H  H131  1  0.35765245  0.53607632  0.56044491  1
  H  H132  1  0.39141503  0.52200531  0.56033272  1
  H  H133  1  0.48223858  0.38871537  0.56038264  1
  H  H134  1  0.46827852  0.35473081  0.56034741  1
  H  H135  1  0.44667938  0.36277999  0.44030286  1
  H  H136  1  0.46065842  0.39677064  0.43999745  1
  H  H137  1  0.61148753  0.46518781  0.56332044  1
  H  H138  1  0.64525299  0.45108520  0.56320113  1
  H  H139  1  0.64708554  0.45741209  0.43573075  1
  H  H140  1  0.61332965  0.47146220  0.43554154  1
  H  H141  1  0.50774763  0.62166996  0.49794783  1
  H  H142  1  0.52180266  0.65559655  0.49839229  1
  H  H143  1  0.58015563  0.63167335  0.50322225  1
  H  H144  1  0.56628797  0.59771291  0.50275241  1
  C  C145  1  0.03240600  0.49208183  0.94623890  1
  C  C146  1  0.00981394  0.49495325  0.94471288  1
  C  C147  1  0.99791749  0.47569448  0.94558418  1
  C  C148  1  0.96714470  0.49134439  0.97399263  1
  C  C149  1  0.03937707  0.52178711  0.98707841  1
  C  C150  1  0.04310921  0.52438546  0.91610837  1
  C  C151  1  0.97075865  0.48661805  0.89803357  1
  C  C152  1  0.97589204  0.51032222  0.05485597  1
  C  C153  1  0.99848634  0.50744374  0.05643299  1
  C  C154  1  0.01038703  0.52670389  0.05561156  1
  C  C155  1  0.04114249  0.51107490  0.02713547  1
  C  C156  1  0.96890222  0.48061561  0.01400355  1
  C  C157  1  0.96519429  0.47801563  0.08492296  1
  C  C158  1  0.03761960  0.51587409  0.10319224  1
  C  C159  1  0.47804989  0.01470622  0.05383956  1
  C  C160  1  0.49600719  0.00074675  0.05609659  1
  C  C161  1  0.49069550  0.97873537  0.05500110  1
  C  C162  1  0.52295767  0.96739438  0.02572650  1
  C  C163  1  0.49514768  0.04073066  0.01584056  1
  C  C164  1  0.49169974  0.04505258  0.08730922  1
  C  C165  1  0.51826664  0.96838886  0.10149728  1
  C  C166  1  0.53097632  0.98763420  0.94715104  1
  C  C167  1  0.51301103  0.00158064  0.94482087  1
  C  C168  1  0.51830270  0.02359690  0.94588521  1
  C  C169  1  0.48606070  0.03492782  0.97525193  1
  C  C170  1  0.51387482  0.96159396  0.98516397  1
  C  C171  1  0.51729852  0.95731748  0.91375155  1
  C  C172  1  0.49071285  0.03395088  0.89940209  1
  C  C173  1  0.45990494  0.49268156  0.50256894  1
  C  C174  1  0.44625771  0.47679780  0.50579264  1
  C  C175  1  0.45702511  0.45969295  0.50477800  1
  C  C176  1  0.47715788  0.46528179  0.50172063  1
  C  C177  1  0.49255885  0.45124421  0.49981039  1
  C  C178  1  0.51258100  0.45692304  0.49847949  1
  C  C179  1  0.52836911  0.44318173  0.49663565  1
  C  C180  1  0.54549366  0.45399829  0.49741685  1
  C  C181  1  0.54002342  0.47422915  0.49926129  1
  C  C182  1  0.45421474  0.51269841  0.50037580  1
  C  C183  1  0.55413008  0.48968175  0.50070426  1
  C  C184  1  0.46831481  0.52808527  0.49773750  1
  C  C185  1  0.46284032  0.54823932  0.49382666  1
  C  C186  1  0.47993595  0.55911150  0.49486891  1
  C  C187  1  0.49573323  0.54544129  0.49862661  1
  C  C188  1  0.51576473  0.55114974  0.50104661  1
  C  C189  1  0.53116401  0.53709626  0.50309220  1
  C  C190  1  0.55136971  0.54269514  0.50564394  1
  C  C191  1  0.56217939  0.52562268  0.50489533  1
  C  C192  1  0.54846357  0.50971714  0.50246052  1
  C  C193  1  0.19272147  0.56944257  0.54278764  1
  C  C194  1  0.20407886  0.56949946  0.50852506  1
  C  C195  1  0.22477299  0.56911213  0.51183488  1
  C  C196  1  0.24273549  0.56925971  0.51169428  1
  C  C197  1  0.26323655  0.56958876  0.50857536  1
  C  C198  1  0.27497554  0.57362899  0.54287399  1
  C  C199  1  0.29500150  0.57285476  0.54031662  1
  C  C200  1  0.30371587  0.56739078  0.50367517  1
  C  C201  1  0.29199570  0.56600833  0.46831692  1
  C  C202  1  0.27198791  0.56669142  0.47081617  1
  C  C203  1  0.19478337  0.57053329  0.47106694  1
  C  C204  1  0.17436998  0.57136885  0.46780357  1
  C  C205  1  0.16494273  0.57243394  0.42999735  1
  C  C206  1  0.15557033  0.57260672  0.39853042  1
  C  C207  1  0.14364750  0.57148261  0.36406044  1
  C  C208  1  0.15202028  0.57438445  0.32617180  1
  C  C209  1  0.14090448  0.57167347  0.29205170  1
  C  C210  1  0.12087137  0.56575828  0.29448597  1
  C  C211  1  0.11201383  0.56555121  0.33292696  1
  C  C212  1  0.12326260  0.56735065  0.36685838  1
  C  C213  1  0.16319631  0.57053703  0.50248604  1
  C  C214  1  0.17222851  0.56980303  0.54014142  1
  C  C215  1  0.16106089  0.56955610  0.57533653  1
  C  C216  1  0.15161633  0.56938569  0.60612056  1
  C  C217  1  0.14088270  0.56911287  0.64150463  1
  C  C218  1  0.12025767  0.56627829  0.63952518  1
  C  C219  1  0.10965244  0.56569024  0.67378724  1
  C  C220  1  0.11936563  0.56552540  0.71194003  1
  C  C221  1  0.13962994  0.57082245  0.71361495  1
  C  C222  1  0.15021976  0.57212991  0.67913392  1
  C  C223  1  0.43623335  0.18886297  0.53905480  1
  C  C224  1  0.43613822  0.20029237  0.50464789  1
  C  C225  1  0.43648147  0.22100490  0.50816538  1
  C  C226  1  0.43634130  0.23900209  0.50851142  1
  C  C227  1  0.43607833  0.25956504  0.50573248  1
  C  C228  1  0.43209550  0.27110341  0.53992517  1
  C  C229  1  0.43292699  0.29118164  0.53739499  1
  C  C230  1  0.43841501  0.30009312  0.50097033  1
  C  C231  1  0.43978964  0.28857603  0.46561826  1
  C  C232  1  0.43902334  0.26852550  0.46808476  1
  C  C233  1  0.43516305  0.19106379  0.46721851  1
  C  C234  1  0.43439247  0.17059497  0.46413937  1
  C  C235  1  0.43341299  0.16108000  0.42651465  1
  C  C236  1  0.43327603  0.15164144  0.39527730  1
  C  C237  1  0.43438050  0.13973108  0.36100888  1
  C  C238  1  0.43145916  0.14806981  0.32280170  1
  C  C239  1  0.43423680  0.13700396  0.28892037  1
  C  C240  1  0.44022491  0.11698044  0.29175221  1
  C  C241  1  0.44032191  0.10811289  0.33038412  1
  C  C242  1  0.43847667  0.11931829  0.36411594  1
  C  C243  1  0.43514923  0.15936610  0.49905625  1
  C  C244  1  0.43586752  0.16834972  0.53662692  1
  C  C245  1  0.43610377  0.15718047  0.57207214  1
  C  C246  1  0.43626488  0.14776470  0.60310347  1
  C  C247  1  0.43651212  0.13704538  0.63873693  1
  C  C248  1  0.43930334  0.11639519  0.63713295  1
  C  C249  1  0.43986644  0.10573371  0.67156656  1
  C  C250  1  0.44001472  0.11546162  0.70953572  1
  C  C251  1  0.43475953  0.13573932  0.71071877  1
  C  C252  1  0.43350234  0.14638676  0.67603896  1
  C  C253  1  0.81545834  0.43087143  0.45807019  1
  C  C254  1  0.80413589  0.43093202  0.49241608  1
  C  C255  1  0.78343508  0.43019971  0.48958168  1
  C  C256  1  0.76547217  0.42991085  0.48970751  1
  C  C257  1  0.74495148  0.43039619  0.49232979  1
  C  C258  1  0.73365420  0.43411355  0.45736873  1
  C  C259  1  0.71372043  0.43576670  0.45987165  1
  C  C260  1  0.70456948  0.43470668  0.49767125  1
  C  C261  1  0.71571903  0.42927201  0.53198107  1
  C  C262  1  0.73569225  0.42736339  0.52944515  1
  C  C263  1  0.81347685  0.43199040  0.52984237  1
  C  C264  1  0.83390083  0.43263329  0.53304040  1
  C  C265  1  0.84345334  0.43329974  0.57075160  1
  C  C266  1  0.85279269  0.43333521  0.60224354  1
  C  C267  1  0.86446141  0.43325545  0.63707153  1
  C  C268  1  0.85549262  0.43660774  0.67430363  1
  C  C269  1  0.86679841  0.43791603  0.70834630  1
  C  C270  1  0.88770018  0.43732384  0.70602362  1
  C  C271  1  0.89622534  0.43103286  0.66944267  1
  C  C272  1  0.88485793  0.42911407  0.63562068  1
  C  C273  1  0.84502327  0.43194902  0.49828973  1
  C  C274  1  0.83596582  0.43105327  0.46067219  1
  C  C275  1  0.84727878  0.43046743  0.42567727  1
  C  C276  1  0.85674922  0.43025123  0.39491855  1
  C  C277  1  0.86731511  0.43100845  0.35934685  1
  C  C278  1  0.88791721  0.42818263  0.35994347  1
  C  C279  1  0.89850490  0.43128459  0.32613935  1
  C  C280  1  0.88905460  0.43747743  0.28997523  1
  C  C281  1  0.86809129  0.43735930  0.28843667  1
  C  C282  1  0.85751573  0.43446985  0.32242865  1
  C  C283  1  0.57465108  0.81330096  0.46174571  1
  C  C284  1  0.57456056  0.80188626  0.49619829  1
  C  C285  1  0.57523878  0.78117068  0.49311247  1
  C  C286  1  0.57550291  0.76317182  0.49280013  1
  C  C287  1  0.57498403  0.74258984  0.49510507  1
  C  C288  1  0.57127870  0.73141151  0.46000721  1
  C  C289  1  0.56957692  0.71142099  0.46257261  1
  C  C290  1  0.57058104  0.70215727  0.50051309  1
  C  C291  1  0.57603122  0.71318822  0.53500823  1
  C  C292  1  0.57800488  0.73319935  0.53241628  1
  C  C293  1  0.57355423  0.81113217  0.53353508  1
  C  C294  1  0.57300448  0.83160384  0.53653074  1
  C  C295  1  0.57238847  0.84124796  0.57397197  1
  C  C296  1  0.57233022  0.85066103  0.60521689  1
  C  C297  1  0.57231001  0.86234762  0.63986381  1
  C  C298  1  0.56886930  0.85337136  0.67713414  1
  C  C299  1  0.56746143  0.86465030  0.71098634  1
  C  C300  1  0.56801216  0.88560601  0.70856268  1
  C  C301  1  0.57443292  0.89414477  0.67211681  1
  C  C302  1  0.57642605  0.88281874  0.63850966  1
  C  C303  1  0.57369062  0.84280644  0.50163472  1
  C  C304  1  0.57454192  0.83382507  0.46415178  1
  C  C305  1  0.57517967  0.84516497  0.42897036  1
  C  C306  1  0.57544128  0.85460172  0.39797234  1
  C  C307  1  0.57472402  0.86512101  0.36209883  1
  C  C308  1  0.57757722  0.88577539  0.36251994  1
  C  C309  1  0.57448500  0.89639289  0.32843010  1
  C  C310  1  0.56830546  0.88687469  0.29221226  1
  C  C311  1  0.56839614  0.86587232  0.29098601  1
  C  C312  1  0.57125874  0.85526601  0.32526290  1
  C  C313  1  0.43435995  0.51842051  0.50095489  1
  C  C314  1  0.41743511  0.52475055  0.50134407  1
  C  C315  1  0.39831042  0.53280283  0.50160870  1
  C  C316  1  0.39096878  0.54392780  0.46882768  1
  C  C317  1  0.37238376  0.55180286  0.46906395  1
  C  C318  1  0.36003901  0.54923309  0.50225174  1
  C  C319  1  0.36727601  0.53818419  0.53509897  1
  C  C320  1  0.38586285  0.53032095  0.53485673  1
  C  C321  1  0.34088658  0.55706067  0.50216046  1
  C  C322  1  0.32385630  0.56288090  0.50248294  1
  C  C323  1  0.48688930  0.43131291  0.49975114  1
  C  C324  1  0.48065936  0.41428313  0.49981723  1
  C  C325  1  0.47268816  0.39505917  0.49998982  1
  C  C326  1  0.47449411  0.38288076  0.53418088  1
  C  C327  1  0.46671070  0.36419291  0.53432017  1
  C  C328  1  0.45644356  0.35665774  0.50039171  1
  C  C329  1  0.45448226  0.36876391  0.46631562  1
  C  C330  1  0.46228132  0.38744212  0.46618168  1
  C  C331  1  0.44872593  0.33739640  0.50005802  1
  C  C332  1  0.44294626  0.32028940  0.50008941  1
  C  C333  1  0.57399507  0.48399552  0.50023409  1
  C  C334  1  0.59092233  0.47766861  0.49980167  1
  C  C335  1  0.61004328  0.46960671  0.49949850  1
  C  C336  1  0.61940399  0.46346154  0.53551271  1
  C  C337  1  0.63797939  0.45559155  0.53553176  1
  C  C338  1  0.64832648  0.45317105  0.49952301  1
  C  C339  1  0.63904852  0.45915781  0.46341593  1
  C  C340  1  0.62044055  0.46701631  0.46340874  1
  C  C341  1  0.66751666  0.44541377  0.50031131  1
  C  C342  1  0.68453184  0.43956924  0.49989132  1
  C  C343  1  0.52150181  0.57106925  0.50095066  1
  C  C344  1  0.52784961  0.58805888  0.50087295  1
  C  C345  1  0.53594421  0.60723612  0.50083626  1
  C  C346  1  0.52357920  0.62400790  0.49931911  1
  C  C347  1  0.53129922  0.64272108  0.49969914  1
  C  C348  1  0.55191335  0.64581018  0.50188682  1
  C  C349  1  0.56433201  0.62917161  0.50243957  1
  C  C350  1  0.55660783  0.61044589  0.50205073  1
  C  C351  1  0.55988634  0.66497587  0.50300432  1
  C  C352  1  0.56576964  0.68204256  0.50281601  1
  C  C353  1  0.05729697  0.52316218  0.88419198  1
  C  C354  1  0.06728477  0.52901076  0.85595426  1
  C  C355  1  0.07753813  0.53697010  0.82625473  1
  C  C356  1  0.08736941  0.54510306  0.80021135  1
  C  C357  1  0.09837075  0.55311309  0.77206239  1
  C  C358  1  0.10846419  0.56005696  0.74520159  1
  C  C359  1  0.48266722  0.05139111  0.88108936  1
  C  C360  1  0.47513731  0.06233001  0.85557989  1
  C  C361  1  0.46708236  0.07335097  0.82681716  1
  C  C362  1  0.45967819  0.08343255  0.79978893  1
  C  C363  1  0.45207315  0.09447527  0.77081576  1
  C  C364  1  0.44537799  0.10456907  0.74326866  1
  C  C365  1  0.95107427  0.47932760  0.11693450  1
  C  C366  1  0.94115988  0.47357943  0.14535064  1
  C  C367  1  0.93101421  0.46576058  0.17535091  1
  C  C368  1  0.92134516  0.45785043  0.20190986  1
  C  C369  1  0.91050636  0.45018891  0.23068270  1
  C  C370  1  0.90042757  0.44335932  0.25766254  1
  C  C371  1  0.52622965  0.95091427  0.11980312  1
  C  C372  1  0.53365241  0.93999568  0.14547273  1
  C  C373  1  0.54155704  0.92906355  0.17454604  1
  C  C374  1  0.54870556  0.91915288  0.20210472  1
  C  C375  1  0.55592266  0.90827767  0.23170641  1
  C  C376  1  0.56250794  0.89819128  0.25934661  1
  C  C377  1  0.47855118  0.05259210  0.11760121  1
  C  C378  1  0.47125415  0.06155778  0.14584143  1
  C  C379  1  0.46444747  0.07231021  0.17622094  1
  C  C380  1  0.45837600  0.08315702  0.20310440  1
  C  C381  1  0.45183194  0.09481065  0.23200414  1
  C  C382  1  0.44578314  0.10555121  0.25894387  1
  C  C383  1  0.05315205  0.52673175  0.12298213  1
  C  C384  1  0.06459564  0.53344381  0.14880064  1
  C  C385  1  0.07639489  0.54047400  0.17766376  1
  C  C386  1  0.08721481  0.54694250  0.20480602  1
  C  C387  1  0.09881751  0.55387526  0.23389648  1
  C  C388  1  0.10945479  0.56019815  0.26124864  1
  C  C389  1  0.95520680  0.47578868  0.87829293  1
  C  C390  1  0.94383844  0.46908881  0.85233396  1
  C  C391  1  0.93221945  0.46210395  0.82314270  1
  C  C392  1  0.92161285  0.45574547  0.79556569  1
  C  C393  1  0.91023933  0.44894396  0.76603921  1
  C  C394  1  0.89966654  0.44264358  0.73857486  1
  C  C395  1  0.53046451  0.94990605  0.88339619  1
  C  C396  1  0.53775362  0.94106183  0.85500596  1
  C  C397  1  0.54452237  0.93048386  0.82435263  1
  C  C398  1  0.55044633  0.91978576  0.79709984  1
  C  C399  1  0.55681982  0.90828862  0.76783400  1
  C  C400  1  0.56273196  0.89761586  0.74065988  1
  N  N401  1  0.04393443  0.51036288  0.95065242  1
  N  N402  1  0.97588255  0.47892912  0.94060453  1
  N  N403  1  0.96436144  0.49204462  0.05041200  1
  N  N404  1  0.03243543  0.52350450  0.06056069  1
  N  N405  1  0.48305350  0.03565553  0.05046995  1
  N  N406  1  0.50848603  0.96534402  0.05975884  1
  N  N407  1  0.52596872  0.96668965  0.95056684  1
  N  N408  1  0.50050644  0.03698759  0.94115595  1
  N  N409  1  0.48856536  0.52634578  0.49988187  1
  N  N410  1  0.52938767  0.51679705  0.50174346  1
  N  N411  1  0.47893217  0.48558112  0.50066437  1
  N  N412  1  0.51977051  0.47602133  0.49971972  1
