# generated using pymatgen
data_H224PdC264(NO)12
_symmetry_space_group_name_H-M   'P 1'
_cell_length_a   65.86526790
_cell_length_b   65.87272640
_cell_length_c   35.65072147
_cell_angle_alpha   89.41573914
_cell_angle_beta   90.66138777
_cell_angle_gamma   70.43372126
_symmetry_Int_Tables_number   1
_chemical_formula_structural   H224PdC264(NO)12
_chemical_formula_sum   'H224 Pd1 C264 N12 O12'
_cell_volume   145720.76059586
_cell_formula_units_Z   1
loop_
 _symmetry_equiv_pos_site_id
 _symmetry_equiv_pos_as_xyz
  1  'x, y, z'
loop_
 _atom_site_type_symbol
 _atom_site_label
 _atom_site_symmetry_multiplicity
 _atom_site_fract_x
 _atom_site_fract_y
 _atom_site_fract_z
 _atom_site_occupancy
  H  H0  1  0.98139025  0.46379353  0.94829140  1
  H  H1  1  0.04569398  0.48428313  0.92595549  1
  H  H2  1  0.04593373  0.48062585  0.97517597  1
  H  H3  1  0.00618641  0.50412126  0.92585848  1
  H  H4  1  0.00594982  0.50446276  0.97478035  1
  H  H5  1  0.01554648  0.46313622  0.92829979  1
  H  H6  1  0.01347251  0.46447200  0.97763329  1
  H  H7  1  0.97395283  0.50739547  0.97772267  1
  H  H8  1  0.95368717  0.49558791  0.96999370  1
  H  H9  1  0.01517939  0.53174157  0.98592491  1
  H  H10  1  0.03911460  0.53802274  0.99068827  1
  H  H11  1  0.01996819  0.52602155  0.91102866  1
  H  H12  1  0.03040136  0.54375785  0.93521839  1
  H  H13  1  0.99056040  0.48676150  0.89152712  1
  H  H14  1  0.96684740  0.50498250  0.91083292  1
  H  H15  1  0.02754956  0.54049057  0.05753274  1
  H  H16  1  0.96310530  0.52027328  0.07954942  1
  H  H17  1  0.96286173  0.52399517  0.03031130  1
  H  H18  1  0.00248352  0.50061465  0.07985793  1
  H  H19  1  0.00292441  0.50000776  0.03100320  1
  H  H20  1  0.99328750  0.54153123  0.07685515  1
  H  H21  1  0.99538467  0.54003330  0.02752406  1
  H  H22  1  0.03493206  0.49705695  0.02738313  1
  H  H23  1  0.05516026  0.50884141  0.03566324  1
  H  H24  1  0.99388249  0.47292266  0.01948826  1
  H  H25  1  0.97006321  0.46642922  0.01497416  1
  H  H26  1  0.98929938  0.47843690  0.09415032  1
  H  H27  1  0.97844232  0.46087086  0.07060610  1
  H  H28  1  0.01794705  0.51742619  0.11357405  1
  H  H29  1  0.04134334  0.49886189  0.09393411  1
  H  H30  1  0.46390454  0.98169069  0.05773493  1
  H  H31  1  0.48441306  0.04585463  0.08059824  1
  H  H32  1  0.48080839  0.04621579  0.03135180  1
  H  H33  1  0.50425788  0.00635717  0.08035844  1
  H  H34  1  0.50460063  0.00622806  0.03144879  1
  H  H35  1  0.46320996  0.01583335  0.07766171  1
  H  H36  1  0.46464123  0.01374596  0.02833585  1
  H  H37  1  0.50751597  0.97414082  0.02835795  1
  H  H38  1  0.49564882  0.95393315  0.03617389  1
  H  H39  1  0.53182323  0.01533450  0.02074971  1
  H  H40  1  0.53823548  0.03919095  0.01601519  1
  H  H41  1  0.52603438  0.02026013  0.09582778  1
  H  H42  1  0.54391961  0.03045956  0.07160794  1
  H  H43  1  0.48694574  0.99086666  0.11448288  1
  H  H44  1  0.50518936  0.96719484  0.09506885  1
  H  H45  1  0.54067406  0.02774123  0.94903004  1
  H  H46  1  0.52039798  0.96326971  0.92674054  1
  H  H47  1  0.52414999  0.96305986  0.97597832  1
  H  H48  1  0.50079593  0.00264109  0.92635561  1
  H  H49  1  0.50011645  0.00312826  0.97521297  1
  H  H50  1  0.54168334  0.99349292  0.92954036  1
  H  H51  1  0.54016887  0.99556343  0.97888361  1
  H  H52  1  0.49724744  0.03505465  0.97910872  1
  H  H53  1  0.50898077  0.05532526  0.97098778  1
  H  H54  1  0.47291807  0.99405030  0.98666757  1
  H  H55  1  0.46657477  0.97015226  0.99112315  1
  H  H56  1  0.47845274  0.98960284  0.91233815  1
  H  H57  1  0.46101213  0.97848187  0.93557576  1
  H  H58  1  0.51767252  0.01815711  0.89286420  1
  H  H59  1  0.49907434  0.04154112  0.91250037  1
  H  H60  1  0.46744581  0.58074856  0.44899537  1
  H  H61  1  0.48311296  0.54084882  0.44774944  1
  H  H62  1  0.51036778  0.47089453  0.44456866  1
  H  H63  1  0.52343221  0.43085421  0.44298269  1
  H  H64  1  0.52082341  0.43011700  0.56389949  1
  H  H65  1  0.50587713  0.47012347  0.56144122  1
  H  H66  1  0.53669017  0.51257647  0.45228909  1
  H  H67  1  0.57661478  0.49872673  0.44818861  1
  H  H68  1  0.57887400  0.46884191  0.55728240  1
  H  H69  1  0.53895152  0.48457196  0.55877706  1
  H  H70  1  0.46891124  0.51153413  0.56186074  1
  H  H71  1  0.42888374  0.52477278  0.56319683  1
  H  H72  1  0.42828908  0.52161108  0.44247429  1
  H  H73  1  0.46827836  0.50685715  0.44514933  1
  H  H74  1  0.51153557  0.53881073  0.55373549  1
  H  H75  1  0.49753395  0.57871215  0.55778880  1
  H  H76  1  0.09869885  0.58919246  0.27394774  1
  H  H77  1  0.11270699  0.53996877  0.29109068  1
  H  H78  1  0.13569831  0.52453636  0.34039083  1
  H  H79  1  0.15957738  0.52597925  0.39303317  1
  H  H80  1  0.14223602  0.59481719  0.37696134  1
  H  H81  1  0.11877476  0.59345503  0.32279265  1
  H  H82  1  0.18410743  0.53003967  0.42732888  1
  H  H83  1  0.15877835  0.53755449  0.44956179  1
  H  H84  1  0.13637548  0.56840789  0.52876439  1
  H  H85  1  0.14541258  0.54301287  0.50748117  1
  H  H86  1  0.13730212  0.56677417  0.47935954  1
  H  H87  1  0.20824369  0.53866831  0.41618360  1
  H  H88  1  0.22757200  0.52251743  0.44864872  1
  H  H89  1  0.22863392  0.54779364  0.43322605  1
  H  H90  1  0.19781422  0.58561219  0.58631685  1
  H  H91  1  0.21439222  0.59129332  0.55151288  1
  H  H92  1  0.22309436  0.56651500  0.57646085  1
  H  H93  1  0.24301260  0.55433783  0.52878156  1
  H  H94  1  0.24356220  0.54827602  0.48022161  1
  H  H95  1  0.27196439  0.54878464  0.49773741  1
  H  H96  1  0.30685746  0.55294712  0.49291096  1
  H  H97  1  0.27690101  0.62231138  0.48519890  1
  H  H98  1  0.24119759  0.61746784  0.48212642  1
  H  H99  1  0.32009667  0.60337870  0.48872506  1
  H  H100  1  0.32775871  0.55907736  0.52590352  1
  H  H101  1  0.16630590  0.59605496  0.57365912  1
  H  H102  1  0.14563532  0.58622005  0.55918644  1
  H  H103  1  0.13741405  0.60530624  0.61194763  1
  H  H104  1  0.11007891  0.61143780  0.66063243  1
  H  H105  1  0.13810069  0.54435867  0.69621999  1
  H  H106  1  0.16518169  0.53881792  0.64724590  1
  H  H107  1  0.09340917  0.59748960  0.71425638  1
  H  H108  1  0.11913156  0.54970681  0.73496079  1
  H  H109  1  0.55611607  0.11662868  0.27805018  1
  H  H110  1  0.60335020  0.08577164  0.28761759  1
  H  H111  1  0.62394302  0.09559909  0.33885476  1
  H  H112  1  0.62591845  0.11800016  0.39235558  1
  H  H113  1  0.55883036  0.15574301  0.37578322  1
  H  H114  1  0.55639898  0.13346922  0.32225249  1
  H  H115  1  0.62424324  0.14825436  0.42831140  1
  H  H116  1  0.61476817  0.12926218  0.45132100  1
  H  H117  1  0.58316030  0.12992388  0.53086040  1
  H  H118  1  0.60861707  0.12076364  0.50983989  1
  H  H119  1  0.58494561  0.12897383  0.48143922  1
  H  H120  1  0.61453793  0.17947656  0.41367997  1
  H  H121  1  0.63177459  0.18645872  0.44571111  1
  H  H122  1  0.60720360  0.20591458  0.43028746  1
  H  H123  1  0.56803655  0.20286810  0.58343859  1
  H  H124  1  0.56324710  0.22297773  0.54790191  1
  H  H125  1  0.58797330  0.21422294  0.57312305  1
  H  H126  1  0.60089963  0.22498226  0.52472173  1
  H  H127  1  0.60635589  0.22211029  0.47595514  1
  H  H128  1  0.60470707  0.25272265  0.49851983  1
  H  H129  1  0.59778962  0.29146374  0.50315401  1
  H  H130  1  0.52973582  0.30351127  0.48420184  1
  H  H131  1  0.53671151  0.26411512  0.48152804  1
  H  H132  1  0.54233570  0.33216397  0.47714031  1
  H  H133  1  0.58801335  0.32838453  0.50512959  1
  H  H134  1  0.55879884  0.17911912  0.57484528  1
  H  H135  1  0.56630400  0.15193091  0.56146411  1
  H  H136  1  0.54779814  0.16187695  0.61290448  1
  H  H137  1  0.53786086  0.13968942  0.66042176  1
  H  H138  1  0.60464385  0.11326215  0.69700658  1
  H  H139  1  0.61456236  0.13467369  0.64740863  1
  H  H140  1  0.54613808  0.11546652  0.71147061  1
  H  H141  1  0.59373209  0.09546799  0.73894376  1
  H  H142  1  0.89222956  0.44840431  0.72814950  1
  H  H143  1  0.92329346  0.40132158  0.72036129  1
  H  H144  1  0.91345691  0.38105458  0.66938903  1
  H  H145  1  0.89064861  0.37927486  0.61544647  1
  H  H146  1  0.85259623  0.44616209  0.62950079  1
  H  H147  1  0.87516915  0.44835165  0.68363320  1
  H  H148  1  0.86054236  0.38078705  0.57952329  1
  H  H149  1  0.87936808  0.39046604  0.55680385  1
  H  H150  1  0.87858458  0.42179466  0.47583182  1
  H  H151  1  0.88770656  0.39625284  0.49795851  1
  H  H152  1  0.87975255  0.41983619  0.52531163  1
  H  H153  1  0.82947928  0.39064890  0.59324869  1
  H  H154  1  0.82196367  0.37362910  0.56193362  1
  H  H155  1  0.80287740  0.39831795  0.57604339  1
  H  H156  1  0.80480304  0.43831976  0.42184425  1
  H  H157  1  0.78510294  0.44267329  0.45705955  1
  H  H158  1  0.79346166  0.41830015  0.43210753  1
  H  H159  1  0.78275848  0.40542022  0.48116919  1
  H  H160  1  0.78645097  0.39925545  0.53000072  1
  H  H161  1  0.75545478  0.40132587  0.50808166  1
  H  H162  1  0.71660106  0.40846190  0.50396312  1
  H  H163  1  0.70521634  0.47614779  0.52250313  1
  H  H164  1  0.74468787  0.46897314  0.52479730  1
  H  H165  1  0.67654355  0.46364760  0.52955016  1
  H  H166  1  0.67952093  0.41849941  0.50195375  1
  H  H167  1  0.82937853  0.44629823  0.42903826  1
  H  H168  1  0.85645337  0.43889899  0.44446863  1
  H  H169  1  0.84770574  0.45725383  0.39229743  1
  H  H170  1  0.86992175  0.46700944  0.34518939  1
  H  H171  1  0.89496148  0.40048446  0.31072645  1
  H  H172  1  0.87369196  0.39066013  0.36024043  1
  H  H173  1  0.89350575  0.45898541  0.29515325  1
  H  H174  1  0.91309849  0.41190889  0.26774945  1
  H  H175  1  0.41643560  0.90990268  0.73186517  1
  H  H176  1  0.46526464  0.89601241  0.71430986  1
  H  H177  1  0.48015870  0.87376493  0.66616503  1
  H  H178  1  0.47869120  0.85015199  0.61409693  1
  H  H179  1  0.41010416  0.86638537  0.62835317  1
  H  H180  1  0.41150917  0.88954388  0.68198006  1
  H  H181  1  0.47469164  0.82480117  0.58137695  1
  H  H182  1  0.46721086  0.85003886  0.55755932  1
  H  H183  1  0.43598480  0.87266430  0.47679246  1
  H  H184  1  0.46155548  0.86363275  0.49882455  1
  H  H185  1  0.43800432  0.87159964  0.52624576  1
  H  H186  1  0.46736220  0.79977105  0.59158022  1
  H  H187  1  0.48312448  0.78089527  0.55946483  1
  H  H188  1  0.45812966  0.77947056  0.57472236  1
  H  H189  1  0.41965136  0.81145270  0.41953121  1
  H  H190  1  0.41407719  0.79439604  0.45402848  1
  H  H191  1  0.43890778  0.78619131  0.43055130  1
  H  H192  1  0.45126188  0.76604842  0.47869848  1
  H  H193  1  0.45752538  0.76478848  0.52753922  1
  H  H194  1  0.45702341  0.73652796  0.50841023  1
  H  H195  1  0.45318626  0.70144680  0.51271098  1
  H  H196  1  0.38388875  0.73084978  0.52025297  1
  H  H197  1  0.38851319  0.76660772  0.52335034  1
  H  H198  1  0.40299811  0.68777760  0.51697807  1
  H  H199  1  0.44674197  0.68078168  0.48020084  1
  H  H200  1  0.40858390  0.84284055  0.43191050  1
  H  H201  1  0.41890611  0.86331620  0.44504881  1
  H  H202  1  0.39960851  0.87102421  0.39290057  1
  H  H203  1  0.39327329  0.89915599  0.34404438  1
  H  H204  1  0.46003169  0.87104426  0.31029495  1
  H  H205  1  0.46585951  0.84342418  0.35982229  1
  H  H206  1  0.40682189  0.91598537  0.29043168  1
  H  H207  1  0.45439078  0.89021038  0.27114566  1
  H  H208  1  0.40406601  0.57114696  0.50259878  1
  H  H209  1  0.39279065  0.51036826  0.50101514  1
  H  H210  1  0.35387898  0.52961152  0.50012802  1
  H  H211  1  0.36515326  0.59051359  0.50135696  1
  H  H212  1  0.56900321  0.40716506  0.50394918  1
  H  H213  1  0.50895172  0.39416657  0.50563746  1
  H  H214  1  0.52925166  0.35570408  0.51504492  1
  H  H215  1  0.58914982  0.36831876  0.50313237  1
  H  H216  1  0.60074368  0.43808144  0.50274580  1
  H  H217  1  0.61414363  0.49786015  0.49679986  1
  H  H218  1  0.65261247  0.47741334  0.49083331  1
  H  H219  1  0.63955800  0.41767209  0.50410392  1
  H  H220  1  0.49629736  0.61582079  0.50871562  1
  H  H221  1  0.43590947  0.60382386  0.50383833  1
  H  H222  1  0.41612679  0.64264643  0.50473444  1
  H  H223  1  0.47670836  0.65461573  0.50630390  1
  Pd  Pd224  1  0.50314758  0.50502952  0.50334219  1
  C  C225  1  0.03782500  0.49164976  0.95193202  1
  C  C226  1  0.01358239  0.49456368  0.95090708  1
  C  C227  1  0.00803976  0.47377240  0.95150927  1
  C  C228  1  0.97067322  0.49213195  0.97799242  1
  C  C229  1  0.03284063  0.52446874  0.98998567  1
  C  C230  1  0.03521843  0.52716916  0.92321636  1
  C  C231  1  0.97581825  0.48764243  0.90711818  1
  C  C232  1  0.97098717  0.51296885  0.05353256  1
  C  C233  1  0.99518863  0.51005793  0.05464285  1
  C  C234  1  0.00075107  0.53080058  0.05372301  1
  C  C235  1  0.03821070  0.51232020  0.02736731  1
  C  C236  1  0.97620715  0.48007434  0.01549202  1
  C  C237  1  0.97387342  0.47749795  0.08234359  1
  C  C238  1  0.03275194  0.51625676  0.09793720  1
  C  C239  1  0.49181398  0.03805507  0.05459507  1
  C  C240  1  0.49470396  0.01382487  0.05534069  1
  C  C241  1  0.47389497  0.00832321  0.05451678  1
  C  C242  1  0.49223121  0.97090020  0.02811156  1
  C  C243  1  0.52462835  0.03299840  0.01668893  1
  C  C244  1  0.52733120  0.03543077  0.08358807  1
  C  C245  1  0.48784450  0.97614371  0.09879867  1
  C  C246  1  0.51311754  0.97118134  0.95275418  1
  C  C247  1  0.51020688  0.99538195  0.95162733  1
  C  C248  1  0.53095197  0.00095227  0.95266596  1
  C  C249  1  0.51249403  0.03837019  0.97921596  1
  C  C250  1  0.48016260  0.97638639  0.99066356  1
  C  C251  1  0.47764892  0.97409101  0.92391638  1
  C  C252  1  0.51647517  0.03297591  0.90851572  1
  C  C253  1  0.48547915  0.54963648  0.47226079  1
  C  C254  1  0.47614280  0.57196271  0.47363010  1
  C  C255  1  0.47922773  0.58304503  0.50534236  1
  C  C256  1  0.49335790  0.57099788  0.53336164  1
  C  C257  1  0.50141455  0.54852714  0.53116630  1
  C  C258  1  0.51069003  0.46099064  0.53573712  1
  C  C259  1  0.51918756  0.43855718  0.53693921  1
  C  C260  1  0.52569564  0.42726943  0.50371076  1
  C  C261  1  0.52104768  0.43898247  0.46992458  1
  C  C262  1  0.51297402  0.46143058  0.47058645  1
  C  C263  1  0.54769441  0.48701127  0.53429322  1
  C  C264  1  0.56999315  0.47771177  0.53285384  1
  C  C265  1  0.58098241  0.48106717  0.50126818  1
  C  C266  1  0.56891993  0.49484194  0.47287904  1
  C  C267  1  0.54648182  0.50276820  0.47508540  1
  C  C268  1  0.45912187  0.51194057  0.47075122  1
  C  C269  1  0.43665404  0.52041136  0.46943143  1
  C  C270  1  0.42529887  0.52743500  0.50243441  1
  C  C271  1  0.43700446  0.52252681  0.53627203  1
  C  C272  1  0.45947836  0.51435956  0.53576403  1
  C  C273  1  0.10030548  0.57222071  0.27110763  1
  C  C274  1  0.11268897  0.55629031  0.29611384  1
  C  C275  1  0.12555395  0.55869694  0.32712345  1
  C  C276  1  0.13716863  0.53993423  0.34826505  1
  C  C277  1  0.15025067  0.54079716  0.37826462  1
  C  C278  1  0.15178550  0.56066023  0.38859123  1
  C  C279  1  0.14067907  0.57954317  0.36841111  1
  C  C280  1  0.12760326  0.57866389  0.33810163  1
  C  C281  1  0.17233831  0.54308414  0.44265783  1
  C  C282  1  0.18216404  0.54992474  0.47611825  1
  C  C283  1  0.20358060  0.54974054  0.47380151  1
  C  C284  1  0.21176957  0.55905265  0.50320680  1
  C  C285  1  0.19870862  0.56895561  0.53366593  1
  C  C286  1  0.17696206  0.56990847  0.53428897  1
  C  C287  1  0.16865334  0.55983589  0.50610962  1
  C  C288  1  0.14590497  0.55956476  0.50553726  1
  C  C289  1  0.21759551  0.53926789  0.44152270  1
  C  C290  1  0.20880082  0.57862610  0.56345891  1
  C  C291  1  0.23438975  0.55927846  0.50169762  1
  C  C292  1  0.25414710  0.58304535  0.49138843  1
  C  C293  1  0.27274504  0.56500671  0.49495278  1
  C  C294  1  0.29278839  0.56749802  0.49415705  1
  C  C295  1  0.29516489  0.58808558  0.49261120  1
  C  C296  1  0.27596540  0.60613281  0.48764975  1
  C  C297  1  0.25580642  0.60355726  0.48637633  1
  C  C298  1  0.31700903  0.58850768  0.49542752  1
  C  C299  1  0.33272937  0.57018902  0.50812832  1
  C  C300  1  0.16295307  0.58130585  0.56589033  1
  C  C301  1  0.15235375  0.57130290  0.62556039  1
  C  C302  1  0.13714070  0.59188036  0.62987796  1
  C  C303  1  0.12196380  0.59537632  0.65791333  1
  C  C304  1  0.12150019  0.57851536  0.68290372  1
  C  C305  1  0.13761917  0.55801116  0.67825674  1
  C  C306  1  0.15295778  0.55464634  0.65049166  1
  C  C307  1  0.10561873  0.58162916  0.71145864  1
  C  C308  1  0.10557367  0.56499855  0.73603047  1
  C  C309  1  0.57010737  0.10211915  0.27319159  1
  C  C310  1  0.58880122  0.09893408  0.29476587  1
  C  C311  1  0.59002440  0.11231910  0.32572337  1
  C  C312  1  0.60947835  0.10865315  0.34678493  1
  C  C313  1  0.61063181  0.12122444  0.37722718  1
  C  C314  1  0.59226850  0.13811316  0.38779015  1
  C  C315  1  0.57298624  0.14244295  0.36740418  1
  C  C316  1  0.57178617  0.12977787  0.33712942  1
  C  C317  1  0.61029180  0.14632429  0.44276255  1
  C  C318  1  0.60310753  0.16152055  0.47494141  1
  C  C319  1  0.60378011  0.18268200  0.47139721  1
  C  C320  1  0.59504838  0.19751394  0.50012218  1
  C  C321  1  0.58480421  0.19179320  0.53118646  1
  C  C322  1  0.58343978  0.17088653  0.53314138  1
  C  C323  1  0.59292404  0.15539522  0.50570996  1
  C  C324  1  0.59230951  0.13278808  0.50716583  1
  C  C325  1  0.61473279  0.18893750  0.43871479  1
  C  C326  1  0.57552006  0.20863186  0.56027698  1
  C  C327  1  0.59558464  0.22006609  0.49787254  1
  C  C328  1  0.57100134  0.25604822  0.49042916  1
  C  C329  1  0.58815987  0.26374211  0.49626553  1
  C  C330  1  0.58425698  0.28578860  0.49796139  1
  C  C331  1  0.56322862  0.30066275  0.49224617  1
  C  C332  1  0.54617077  0.29230432  0.48700535  1
  C  C333  1  0.54994861  0.27032547  0.48594966  1
  C  C334  1  0.55795131  0.32385777  0.49049986  1
  C  C335  1  0.57063234  0.33562703  0.50075402  1
  C  C336  1  0.57258572  0.16519476  0.56631309  1
  C  C337  1  0.58202777  0.14840689  0.62587391  1
  C  C338  1  0.56031458  0.15056592  0.63032001  1
  C  C339  1  0.55465959  0.13862619  0.65778058  1
  C  C340  1  0.57028009  0.12486752  0.68281955  1
  C  C341  1  0.59212115  0.12373198  0.67851457  1
  C  C342  1  0.59781507  0.13564759  0.65070809  1
  C  C343  1  0.56333157  0.11318020  0.71102003  1
  C  C344  1  0.57622261  0.09930315  0.73833641  1
  C  C345  1  0.90669432  0.43432698  0.73375355  1
  C  C346  1  0.90993565  0.41581809  0.71257876  1
  C  C347  1  0.89646031  0.41478693  0.68131027  1
  C  C348  1  0.90021369  0.39546839  0.66079738  1
  C  C349  1  0.88746476  0.39445590  0.63013338  1
  C  C350  1  0.87040188  0.41284240  0.61883407  1
  C  C351  1  0.86602980  0.43202055  0.63859011  1
  C  C352  1  0.87884045  0.43308027  0.66915192  1
  C  C353  1  0.86232376  0.39478408  0.56451124  1
  C  C354  1  0.84707251  0.40191984  0.53158220  1
  C  C355  1  0.82585808  0.40150680  0.53495731  1
  C  C356  1  0.81082286  0.41055745  0.50573684  1
  C  C357  1  0.81643317  0.42079952  0.47433579  1
  C  C358  1  0.83748647  0.42176008  0.47238873  1
  C  C359  1  0.85310425  0.41211035  0.50056604  1
  C  C360  1  0.87576415  0.41258977  0.49973165  1
  C  C361  1  0.81975064  0.39061999  0.56809786  1
  C  C362  1  0.79926847  0.43053830  0.44493670  1
  C  C363  1  0.78819623  0.41029176  0.50794299  1
  C  C364  1  0.75245687  0.43487223  0.51577881  1
  C  C365  1  0.74454525  0.41786208  0.51033128  1
  C  C366  1  0.72244189  0.42187622  0.50891815  1
  C  C367  1  0.70774125  0.44284660  0.51455653  1
  C  C368  1  0.71630741  0.45973735  0.51966696  1
  C  C369  1  0.73832900  0.45585629  0.52046642  1
  C  C370  1  0.68454921  0.44821943  0.51629275  1
  C  C371  1  0.67248005  0.43584114  0.50601647  1
  C  C372  1  0.84326344  0.43256259  0.43894971  1
  C  C373  1  0.86051790  0.42308694  0.38061788  1
  C  C374  1  0.85875080  0.44470377  0.37552571  1
  C  C375  1  0.87071175  0.45027596  0.34820529  1
  C  C376  1  0.88408302  0.43472470  0.32378387  1
  C  C377  1  0.88483405  0.41298989  0.32872267  1
  C  C378  1  0.87298400  0.40734660  0.35651333  1
  C  C379  1  0.89573012  0.44180293  0.29569713  1
  C  C380  1  0.90941974  0.42938136  0.26869425  1
  C  C381  1  0.43344837  0.90835593  0.73427421  1
  C  C382  1  0.44885471  0.89608379  0.70942251  1
  C  C383  1  0.44616060  0.88336146  0.67864646  1
  C  C384  1  0.46478677  0.87211948  0.65806376  1
  C  C385  1  0.46391082  0.85914647  0.62834483  1
  C  C386  1  0.44414145  0.85727962  0.61764874  1
  C  C387  1  0.42535756  0.86811024  0.63714914  1
  C  C388  1  0.42626589  0.88105413  0.66722323  1
  C  C389  1  0.46164441  0.83653252  0.56501015  1
  C  C390  1  0.45480919  0.82669857  0.53158681  1
  C  C391  1  0.45546228  0.80508939  0.53390941  1
  C  C392  1  0.44625826  0.79696597  0.50417596  1
  C  C393  1  0.43613439  0.81019992  0.47317186  1
  C  C394  1  0.43487330  0.83202793  0.47237367  1
  C  C395  1  0.44484165  0.84031215  0.50079565  1
  C  C396  1  0.44503374  0.86308510  0.50054459  1
  C  C397  1  0.46645177  0.79070012  0.56639593  1
  C  C398  1  0.42666923  0.80026032  0.44284534  1
  C  C399  1  0.44636915  0.77421127  0.50565508  1
  C  C400  1  0.42283349  0.75402919  0.51459359  1
  C  C401  1  0.44088495  0.73558139  0.51097746  1
  C  C402  1  0.43854252  0.71545993  0.51154226  1
  C  C403  1  0.41805523  0.71289139  0.51303826  1
  C  C404  1  0.39998971  0.73193389  0.51789288  1
  C  C405  1  0.40243652  0.75213535  0.51922565  1
  C  C406  1  0.41774706  0.69102403  0.51039154  1
  C  C407  1  0.43594451  0.67551889  0.49802505  1
  C  C408  1  0.42351216  0.84596656  0.43977897  1
  C  C409  1  0.43348045  0.85618211  0.38027158  1
  C  C410  1  0.41289668  0.87152664  0.37536742  1
  C  C411  1  0.40926292  0.88705590  0.34725117  1
  C  C412  1  0.42596622  0.88755359  0.32262066  1
  C  C413  1  0.44651307  0.87134247  0.32790481  1
  C  C414  1  0.45002810  0.85571639  0.35590356  1
  C  C415  1  0.42263726  0.90361546  0.29374697  1
  C  C416  1  0.43905346  0.90370782  0.26940405  1
  C  C417  1  0.39298895  0.56200521  0.50189878  1
  C  C418  1  0.40131609  0.53937009  0.50172960  1
  C  C419  1  0.38682463  0.52794730  0.50079831  1
  C  C420  1  0.36484295  0.53886156  0.50090139  1
  C  C421  1  0.35605741  0.56159648  0.50211977  1
  C  C422  1  0.37086382  0.57295704  0.50129458  1
  C  C423  1  0.56028446  0.39570991  0.50421411  1
  C  C424  1  0.53758306  0.40337085  0.50439072  1
  C  C425  1  0.52653945  0.38855267  0.50617068  1
  C  C426  1  0.53791259  0.36668541  0.50814607  1
  C  C427  1  0.56060693  0.35862679  0.50419014  1
  C  C428  1  0.57160190  0.37382023  0.50400751  1
  C  C429  1  0.61228726  0.44668697  0.50212028  1
  C  C430  1  0.60469095  0.46939636  0.49964083  1
  C  C431  1  0.61964596  0.48028570  0.49707428  1
  C  C432  1  0.64149736  0.46880121  0.49697733  1
  C  C433  1  0.64944937  0.44608259  0.50199513  1
  C  C434  1  0.63414335  0.43522207  0.50253722  1
  C  C435  1  0.47872041  0.62159019  0.50837995  1
  C  C436  1  0.46754125  0.60686816  0.50694892  1
  C  C437  1  0.44486667  0.61504973  0.50482956  1
  C  C438  1  0.43368533  0.63711375  0.50525818  1
  C  C439  1  0.44482246  0.65211932  0.50458251  1
  C  C440  1  0.46759549  0.64352219  0.50643241  1
  C  C441  1  0.05069814  0.52570030  0.89392045  1
  C  C442  1  0.05909364  0.53189616  0.86724902  1
  C  C443  1  0.06661282  0.54073813  0.83913666  1
  C  C444  1  0.07293019  0.55035556  0.81422644  1
  C  C445  1  0.08098045  0.55935046  0.78747030  1
  C  C446  1  0.09020347  0.56593976  0.76216001  1
  C  C447  1  0.52757946  0.04554341  0.89029542  1
  C  C448  1  0.53538262  0.05502025  0.86752251  1
  C  C449  1  0.54387935  0.06442744  0.84187538  1
  C  C450  1  0.55157467  0.07274733  0.81691264  1
  C  C451  1  0.55979622  0.08164378  0.79025838  1
  C  C452  1  0.56745488  0.08998657  0.76531405  1
  C  C453  1  0.95848031  0.47944317  0.11196923  1
  C  C454  1  0.94965278  0.47405875  0.13887846  1
  C  C455  1  0.94151281  0.46593514  0.16718198  1
  C  C456  1  0.93453000  0.45672479  0.19177792  1
  C  C457  1  0.92650817  0.44720519  0.21786991  1
  C  C458  1  0.91862364  0.43870160  0.24228542  1
  C  C459  1  0.47620113  0.96398932  0.11670647  1
  C  C460  1  0.46776066  0.95496030  0.13920851  1
  C  C461  1  0.45854340  0.94613491  0.16459569  1
  C  C462  1  0.45044755  0.93832199  0.18974357  1
  C  C463  1  0.44289256  0.92915799  0.21689278  1
  C  C464  1  0.43763309  0.91914613  0.24264421  1
  C  C465  1  0.52605282  0.05089072  0.11293457  1
  C  C466  1  0.53217618  0.05925549  0.13977263  1
  C  C467  1  0.54096021  0.06673038  0.16812478  1
  C  C468  1  0.55053978  0.07299518  0.19321426  1
  C  C469  1  0.56002599  0.08052404  0.22011388  1
  C  C470  1  0.56762760  0.08880390  0.24545774  1
  C  C471  1  0.04529539  0.52740720  0.11606812  1
  C  C472  1  0.05464424  0.53558397  0.13845005  1
  C  C473  1  0.06384250  0.54460379  0.16361114  1
  C  C474  1  0.07198850  0.55239792  0.18871469  1
  C  C475  1  0.08074118  0.56064720  0.21560863  1
  C  C476  1  0.08970279  0.56673989  0.24182177  1
  C  C477  1  0.96370681  0.47597206  0.88898316  1
  C  C478  1  0.95463239  0.46772762  0.86614838  1
  C  C479  1  0.94572331  0.45874143  0.84040282  1
  C  C480  1  0.93785523  0.45081635  0.81504189  1
  C  C481  1  0.92911691  0.44277957  0.78781388  1
  C  C482  1  0.92010461  0.43632066  0.76205373  1
  C  C483  1  0.47979948  0.95872505  0.89420178  1
  C  C484  1  0.47414429  0.94997948  0.86742038  1
  C  C485  1  0.46574342  0.94194357  0.83934600  1
  C  C486  1  0.45631799  0.93513315  0.81482954  1
  C  C487  1  0.44676463  0.92727864  0.78848078  1
  C  C488  1  0.43956777  0.91882802  0.76295954  1
  N  N489  1  0.04190792  0.51207976  0.95635799  1
  N  N490  1  0.98391434  0.47845571  0.94689723  1
  N  N491  1  0.96708866  0.49247410  0.04908665  1
  N  N492  1  0.02487214  0.52588586  0.05844168  1
  N  N493  1  0.51226197  0.04213211  0.05034493  1
  N  N494  1  0.47857711  0.98421139  0.05911206  1
  N  N495  1  0.49261641  0.96730305  0.95715603  1
  N  N496  1  0.52606702  0.02507516  0.94806337  1
  N  N497  1  0.50859414  0.47238225  0.50315477  1
  N  N498  1  0.49730295  0.53782002  0.50128858  1
  N  N499  1  0.47050848  0.51022902  0.50327869  1
  N  N500  1  0.53589537  0.49898938  0.50537900  1
  O  O501  1  0.16430638  0.56213986  0.41814450  1
  O  O502  1  0.16734605  0.56667624  0.59814228  1
  O  O503  1  0.23427606  0.58097198  0.49234452  1
  O  O504  1  0.59197040  0.15154234  0.41664189  1
  O  O505  1  0.58813812  0.15874985  0.59729659  1
  O  O506  1  0.57384878  0.23464406  0.48923307  1
  O  O507  1  0.85690889  0.41315416  0.58959391  1
  O  O508  1  0.84999745  0.41702760  0.40885657  1
  O  O509  1  0.77390422  0.43195050  0.51640061  1
  O  O510  1  0.44264696  0.84471527  0.58855151  1
  O  O511  1  0.43807022  0.84106167  0.40818856  1
  O  O512  1  0.42477070  0.77396714  0.51401096  1
