# generated using pymatgen
data_H258C272S(N6O7)2
_symmetry_space_group_name_H-M   'P 1'
_cell_length_a   52.49945861
_cell_length_b   52.76947479
_cell_length_c   88.74858647
_cell_angle_alpha   89.09879043
_cell_angle_beta   89.20156411
_cell_angle_gamma   74.88307412
_symmetry_Int_Tables_number   1
_chemical_formula_structural   H258C272S(N6O7)2
_chemical_formula_sum   'H258 C272 S1 N12 O14'
_cell_volume   237316.59632163
_cell_formula_units_Z   1
loop_
 _symmetry_equiv_pos_site_id
 _symmetry_equiv_pos_as_xyz
  1  'x, y, z'
loop_
 _atom_site_type_symbol
 _atom_site_label
 _atom_site_symmetry_multiplicity
 _atom_site_fract_x
 _atom_site_fract_y
 _atom_site_fract_z
 _atom_site_occupancy
  H  H0  1  0.03840088  0.01203409  0.54842952  1
  H  H1  1  0.09874348  0.99778826  0.54331356  1
  H  H2  1  0.12361039  0.98502480  0.56698795  1
  H  H3  1  0.12758488  0.98951368  0.59425479  1
  H  H4  1  0.04602686  0.03398341  0.59670253  1
  H  H5  1  0.04267320  0.03156942  0.56909598  1
  H  H6  1  0.12645668  0.01065072  0.61833036  1
  H  H7  1  0.11549428  0.98168959  0.61879598  1
  H  H8  1  0.08304739  0.95088663  0.64531502  1
  H  H9  1  0.11275004  0.95156321  0.63606600  1
  H  H10  1  0.08214269  0.96727081  0.62772853  1
  H  H11  1  0.11328109  0.04894676  0.62390098  1
  H  H12  1  0.13603387  0.04629526  0.63873037  1
  H  H13  1  0.10573038  0.07094110  0.63899024  1
  H  H14  1  0.06646403  0.01031997  0.68944682  1
  H  H15  1  0.06078691  0.04400256  0.68452506  1
  H  H16  1  0.09194138  0.02607007  0.69117869  1
  H  H17  1  0.10342234  0.05750345  0.67861360  1
  H  H18  1  0.10796426  0.07158099  0.66080293  1
  H  H19  1  0.11085621  0.09652702  0.67893835  1
  H  H20  1  0.10789500  0.13854499  0.69059233  1
  H  H21  1  0.02305085  0.15917114  0.68671580  1
  H  H22  1  0.02642520  0.11789183  0.67310534  1
  H  H23  1  0.04501730  0.19039902  0.69945588  1
  H  H24  1  0.10129083  0.16190979  0.70939496  1
  H  H25  1  0.05819799  0.98369642  0.67853471  1
  H  H26  1  0.06221448  0.96391422  0.66240287  1
  H  H27  1  0.04417974  0.94924844  0.68099127  1
  H  H28  1  0.03354665  0.90923103  0.69010319  1
  H  H29  1  0.11582167  0.87402658  0.69943165  1
  H  H30  1  0.12664904  0.91408034  0.68954842  1
  H  H31  1  0.04398254  0.86793934  0.69930803  1
  H  H32  1  0.10117123  0.83762595  0.70690641  1
  H  H33  1  0.00866429  0.00736912  0.48339481  1
  H  H34  1  0.06361519  0.01471965  0.47469997  1
  H  H35  1  0.07948204  0.00748340  0.45054830  1
  H  H36  1  0.07416127  0.00308964  0.42338408  1
  H  H37  1  0.99122993  0.00953802  0.43044000  1
  H  H38  1  0.99642561  0.01397144  0.45782121  1
  H  H39  1  0.06566446  0.98779612  0.40158776  1
  H  H40  1  0.05671473  0.02249664  0.40208679  1
  H  H41  1  0.01977480  0.07315103  0.37888353  1
  H  H42  1  0.05088790  0.05573647  0.38567297  1
  H  H43  1  0.02199339  0.05561349  0.39616680  1
  H  H44  1  0.05242439  0.95772371  0.39636234  1
  H  H45  1  0.07175838  0.94917081  0.37981864  1
  H  H46  1  0.04107337  0.94130135  0.38188302  1
  H  H47  1  0.99410038  0.02665989  0.33541854  1
  H  H48  1  0.98797155  0.99614685  0.34070203  1
  H  H49  1  0.01789673  0.99705610  0.33167006  1
  H  H50  1  0.03151417  0.95909969  0.34263008  1
  H  H51  1  0.04101677  0.94158690  0.35975775  1
  H  H52  1  0.03954462  0.91523084  0.34296040  1
  H  H53  1  0.03226137  0.87858102  0.32872907  1
  H  H54  1  0.94987723  0.90032934  0.34171837  1
  H  H55  1  0.95672584  0.93905618  0.35484121  1
  H  H56  1  0.96798828  0.86248211  0.32321809  1
  H  H57  1  0.02675069  0.83890729  0.32877058  1
  H  H58  1  0.98536631  0.05646268  0.34853729  1
  H  H59  1  -0.00503436  0.07294424  0.36372679  1
  H  H60  1  0.97198766  0.10089225  0.34739091  1
  H  H61  1  0.96125336  0.14676058  0.33877715  1
  H  H62  1  0.04062491  0.13573228  0.32153382  1
  H  H63  1  0.05128738  0.08933655  0.32997180  1
  H  H64  1  0.97421720  0.18438297  0.32952577  1
  H  H65  1  0.02353784  0.17418777  0.30910241  1
  H  H66  1  0.93667932  0.54268991  0.84356386  1
  H  H67  1  0.98264944  0.56989721  0.87682135  1
  H  H68  1  0.04710046  0.39575402  0.79273887  1
  H  H69  1  0.09684864  0.49437343  0.84914705  1
  H  H70  1  0.06045437  0.44686458  0.75666599  1
  H  H71  1  0.14555794  0.48589720  0.80905745  1
  H  H72  1  0.07619241  0.54220839  0.80143296  1
  H  H73  1  0.05689344  0.55936331  0.81680757  1
  H  H74  1  0.06598076  0.48972355  0.83002845  1
  H  H75  1  0.07173034  0.52084261  0.83445851  1
  H  H76  1  0.01809354  0.50736699  0.82282680  1
  H  H77  1  0.00888522  0.53663172  0.81135228  1
  H  H78  1  0.07376765  0.49788211  0.79437672  1
  H  H79  1  0.93727025  0.57589032  0.88165432  1
  H  H80  1  0.03912319  0.51088864  0.79083500  1
  H  H81  1  0.02117508  0.56011528  0.85925557  1
  H  H82  1  0.05743533  0.48241818  0.77478724  1
  H  H83  1  0.07533570  0.58228787  0.79959893  1
  H  H84  1  0.07525067  0.62439607  0.78727757  1
  H  H85  1  0.97531717  0.53192259  0.82660899  1
  H  H86  1  0.08605831  0.62882002  0.76450359  1
  H  H87  1  0.90593696  0.54699704  0.86169324  1
  H  H88  1  0.06808500  0.36385640  0.77782295  1
  H  H89  1  0.02901726  0.66175112  0.75926056  1
  H  H90  1  0.00069751  0.62738082  0.76651222  1
  H  H91  1  -0.00108552  0.58694680  0.78070609  1
  H  H92  1  0.04443801  0.43148813  0.81106989  1
  H  H93  1  0.13623492  0.48698999  0.86490537  1
  H  H94  1  0.18563200  0.47626640  0.82489435  1
  H  H95  1  0.20619644  0.46699640  0.85039054  1
  H  H96  1  0.17035671  0.49763118  0.87549407  1
  H  H97  1  0.05724388  0.40233691  0.75107289  1
  H  H98  1  0.14455816  0.46735496  0.18140929  1
  H  H99  1  0.10397782  0.52234229  0.14741330  1
  H  H100  1  0.03618594  0.38791240  0.23119300  1
  H  H101  1  0.98521729  0.51866169  0.17549320  1
  H  H102  1  0.02545688  0.44178172  0.26849174  1
  H  H103  1  0.93785899  0.53825639  0.21588205  1
  H  H104  1  0.00791269  0.55024168  0.22221947  1
  H  H105  1  0.02745476  0.55628560  0.20642519  1
  H  H106  1  0.01526083  0.49329517  0.19476207  1
  H  H107  1  0.01187238  0.52712294  0.18989640  1
  H  H108  1  0.06348696  0.48316809  0.20212076  1
  H  H109  1  0.07435819  0.50631623  0.21335844  1
  H  H110  1  0.00804109  0.50575459  0.23044557  1
  H  H111  1  0.14860065  0.49812742  0.14247414  1
  H  H112  1  0.04280235  0.49872975  0.23406093  1
  H  H113  1  0.06565616  0.53667959  0.16488287  1
  H  H114  1  0.02512889  0.47813768  0.25066536  1
  H  H115  1  0.00839440  0.58854188  0.22382217  1
  H  H116  1  0.00388411  0.62748521  0.23919821  1
  H  H117  1  0.10629487  0.48126904  0.19838984  1
  H  H118  1  0.00526669  0.66255290  0.24886676  1
  H  H119  1  0.17317235  0.45169344  0.16419441  1
  H  H120  1  0.04763297  0.35820312  0.24738231  1
  H  H121  1  0.05419984  0.63610768  0.26738622  1
  H  H122  1  0.08033344  0.59292829  0.25881808  1
  H  H123  1  0.08317682  0.55203294  0.24455187  1
  H  H124  1  0.03895377  0.42397321  0.21363509  1
  H  H125  1  0.94669271  0.53876077  0.15998609  1
  H  H126  1  0.89816727  0.55621789  0.20022703  1
  H  H127  1  0.87745592  0.56428384  0.17435191  1
  H  H128  1  0.91828607  0.57241765  0.15054908  1
  H  H129  1  0.02306458  0.39535047  0.27282647  1
  H  H130  1  0.77022203  0.58927966  0.06497945  1
  H  H131  1  0.72631903  0.64039476  0.06236291  1
  H  H132  1  0.72452504  0.61461995  0.07502207  1
  H  H133  1  0.70359759  0.60948852  0.05009873  1
  H  H134  1  0.77668576  0.58475604  0.03854367  1
  H  H135  1  0.77179352  0.61226726  0.02623681  1
  H  H136  1  0.59499852  0.62477130  0.01364791  1
  H  H137  1  0.63924766  0.58591219  0.99640401  1
  H  H138  1  0.73087819  0.58277784  0.05449203  1
  H  H139  1  0.76421070  0.64219750  0.04874953  1
  H  H140  1  0.79493834  0.61838595  0.05003601  1
  H  H141  1  0.65639133  0.62348157  0.98914903  1
  H  H142  1  0.63078367  0.64539863  -0.00060060  1
  H  H143  1  0.76419051  0.65353871  0.95983282  1
  H  H144  1  0.63339999  0.64021396  0.02901115  1
  H  H145  1  0.65984711  0.61451739  0.03585246  1
  H  H146  1  0.61376766  0.61088041  0.98824113  1
  H  H147  1  0.61651251  0.60333358  0.03710124  1
  H  H148  1  0.64057227  0.58097190  0.02639290  1
  H  H149  1  0.78154284  0.59774470  0.97337391  1
  H  H150  1  0.71687386  0.65959503  0.97377877  1
  H  H151  1  0.70246942  0.63265993  0.97339687  1
  H  H152  1  0.77147400  0.61834718  0.99825355  1
  H  H153  1  0.76211948  0.65009590  0.98982489  1
  H  H154  1  0.79847804  0.62236901  0.97550899  1
  H  H155  1  0.72659451  0.63855049  0.94946336  1
  H  H156  1  0.73923882  0.60714891  0.95775999  1
  H  H157  1  0.33463252  0.37936356  0.95464693  1
  H  H158  1  0.34693927  0.43074230  0.96391403  1
  H  H159  1  0.36380671  0.40978933  0.94956058  1
  H  H160  1  0.38932438  0.40195622  0.97363307  1
  H  H161  1  0.34059870  0.36304111  0.98240241  1
  H  H162  1  0.32643689  0.38475991  0.99718683  1
  H  H163  1  0.44502936  0.46474522  0.00934041  1
  H  H164  1  0.46900170  0.41444717  0.02689877  1
  H  H165  1  0.37988133  0.37366625  0.96779035  1
  H  H166  1  0.30921511  0.42057578  0.97825327  1
  H  H167  1  0.29820281  0.39246939  0.97421471  1
  H  H168  1  0.42164112  0.42401885  0.03520075  1
  H  H169  1  0.41532303  0.45557604  0.02686765  1
  H  H170  1  0.30267437  0.43865178  0.05797296  1
  H  H171  1  0.42133505  0.44746973  0.99234030  1
  H  H172  1  0.42972364  0.41331460  0.98944449  1
  H  H173  1  0.45978500  0.44508306  0.03612559  1
  H  H174  1  0.46797513  0.43472536  0.98770417  1
  H  H175  1  0.47388608  0.40883007  1.00124038  1
  H  H176  1  0.32446391  0.37883897  0.05590040  1
  H  H177  1  0.34454653  0.44668338  0.04734194  1
  H  H178  1  0.37486499  0.42278594  0.04999207  1
  H  H179  1  0.32383218  0.38847314  0.02820609  1
  H  H180  1  0.30744829  0.42173780  0.03152530  1
  H  H181  1  0.29211606  0.39553246  0.05035680  1
  H  H182  1  0.34548409  0.43187888  0.07315529  1
  H  H183  1  0.35312552  0.39834304  0.06827380  1
  H  H184  1  0.84771546  0.54868632  0.90668846  1
  H  H185  1  0.81406505  0.56475333  0.92669428  1
  H  H186  1  0.82288152  0.64309689  0.92017156  1
  H  H187  1  0.85649138  0.62700228  0.90016231  1
  H  H188  1  0.81977457  0.56479878  0.12987855  1
  H  H189  1  0.78665947  0.58124881  0.10972885  1
  H  H190  1  0.83128744  0.63413240  0.09365784  1
  H  H191  1  0.86453141  0.61775834  0.11381586  1
  H  H192  1  0.25903142  0.41593674  0.89159807  1
  H  H193  1  0.29041338  0.39939795  0.91236854  1
  H  H194  1  0.25797390  0.47057209  0.93684425  1
  H  H195  1  0.22658337  0.48706491  0.91603951  1
  H  H196  1  0.20396312  0.42501801  0.10946693  1
  H  H197  1  0.23819081  0.41018187  0.08959760  1
  H  H198  1  0.29057016  0.44605814  0.11319576  1
  H  H199  1  0.25633867  0.46086660  0.13308678  1
  H  H200  1  0.55153070  0.45509718  0.01246358  1
  H  H201  1  0.51973176  0.42802674  0.01187154  1
  H  H202  1  0.45574030  0.49848551  0.01322896  1
  H  H203  1  0.48761073  0.52535392  0.01251513  1
  H  H204  1  0.60347328  0.51843700  0.01221497  1
  H  H205  1  0.62817099  0.55200156  0.01185063  1
  H  H206  1  0.55481222  0.61267739  0.01158827  1
  H  H207  1  0.53027823  0.57873271  0.01149737  1
  H  H208  1  0.10983329  0.19863253  0.71774761  1
  H  H209  1  0.06375689  0.21945557  0.72871112  1
  H  H210  1  0.10345508  0.23758727  0.73081173  1
  H  H211  1  0.03281840  0.34647521  0.76778165  1
  H  H212  1  0.07893223  0.32158856  0.75804197  1
  H  H213  1  0.03689525  0.30713455  0.75475566  1
  H  H214  1  0.02949010  0.36666724  0.75148277  1
  H  H215  1  0.07230373  0.34030097  0.74128060  1
  H  H216  1  0.03140537  0.32466298  0.73743574  1
  H  H217  1  0.09905254  0.21277619  0.70013348  1
  H  H218  1  0.05549114  0.23610307  0.71134348  1
  H  H219  1  0.09618501  0.25382127  0.71321728  1
  H  H220  1  0.05009936  0.83323432  0.72032560  1
  H  H221  1  0.09232691  0.79944926  0.72821821  1
  H  H222  1  0.04576470  0.79489113  0.73239878  1
  H  H223  1  0.09555070  0.67275096  0.76556170  1
  H  H224  1  0.05280254  0.70516991  0.75876786  1
  H  H225  1  0.09780130  0.71280252  0.75363437  1
  H  H226  1  0.09809291  0.65919118  0.74757600  1
  H  H227  1  0.05354776  0.69086614  0.74087231  1
  H  H228  1  0.09879550  0.69805853  0.73578613  1
  H  H229  1  0.05289252  0.81889540  0.70246339  1
  H  H230  1  0.09353860  0.78468034  0.71043352  1
  H  H231  1  0.04700163  0.77996721  0.71460334  1
  H  H232  1  0.00408479  0.84202398  0.29732179  1
  H  H233  1  0.98112666  0.80933993  0.30398853  1
  H  H234  1  0.01587634  0.79703426  0.28302537  1
  H  H235  1  0.98438664  0.67966818  0.27227993  1
  H  H236  1  0.01443444  0.70883519  0.26266159  1
  H  H237  1  0.97905266  0.72162391  0.28262771  1
  H  H238  1  0.01120760  0.66214032  0.28325482  1
  H  H239  1  0.03738901  0.69316633  0.27633268  1
  H  H240  1  0.00172776  0.70586547  0.29656851  1
  H  H241  1  0.03417138  0.82278046  0.30443621  1
  H  H242  1  0.00499363  0.79343129  0.31714752  1
  H  H243  1  0.03909403  0.78074975  0.29655817  1
  H  H244  1  0.99534316  0.22249090  0.32833892  1
  H  H245  1  0.98665696  0.23734530  0.30225355  1
  H  H246  1  0.00586089  0.26574347  0.31957351  1
  H  H247  1  -0.00555264  0.35800762  0.26048483  1
  H  H248  1  0.01394193  0.34523608  0.28497993  1
  H  H249  1  0.98885733  0.31570254  0.27275702  1
  H  H250  1  0.01782424  0.33277189  0.25132041  1
  H  H251  1  0.04351555  0.32572156  0.27723471  1
  H  H252  1  0.01903245  0.29641713  0.26531978  1
  H  H253  1  0.02961486  0.21175853  0.32482707  1
  H  H254  1  0.01878368  0.22116752  0.29628720  1
  H  H255  1  0.03785353  0.24964770  0.31297501  1
  H  H256  1  0.04746285  0.05567911  0.49504543  1
  H  H257  1  0.06919631  0.05066906  0.52091987  1
  C  C258  1  0.05660544  0.01198852  0.54214211  1
  C  C259  1  0.08035566  0.00566207  0.54951811  1
  C  C260  1  0.08258231  0.00727764  0.56570092  1
  C  C261  1  0.10647828  0.99596471  0.57338587  1
  C  C262  1  0.10867832  0.99821470  0.58888978  1
  C  C263  1  0.08678350  0.01180374  0.59736441  1
  C  C264  1  0.06298706  0.02330220  0.59008779  1
  C  C265  1  0.06101679  0.02140397  0.57455924  1
  C  C266  1  0.10969534  0.00268569  0.62157562  1
  C  C267  1  0.10207596  0.00748265  0.63798268  1
  C  C268  1  0.10269910  0.03156158  0.64462245  1
  C  C269  1  0.09357708  0.03677082  0.65962786  1
  C  C270  1  0.08421161  0.01792087  0.66807421  1
  C  C271  1  0.08355692  0.99400646  0.66128829  1
  C  C272  1  0.09268108  0.98854808  0.64628870  1
  C  C273  1  0.09255059  0.96342167  0.63856546  1
  C  C274  1  0.11482095  0.05039231  0.63614387  1
  C  C275  1  0.07534188  0.02475129  0.68401981  1
  C  C276  1  0.09511132  0.06177492  0.66720340  1
  C  C277  1  0.06865116  0.10379172  0.67563932  1
  C  C278  1  0.09140364  0.10992646  0.68065987  1
  C  C279  1  0.08961031  0.13367013  0.68779767  1
  C  C280  1  0.06505396  0.15170899  0.69088151  1
  C  C281  1  0.04238166  0.14547697  0.68510145  1
  C  C282  1  0.04415392  0.12209977  0.67753347  1
  C  C283  1  0.06410330  0.17580771  0.69904387  1
  C  C284  1  0.08529999  0.17918999  0.70667539  1
  C  C285  1  0.07260691  0.97423226  0.66989225  1
  C  C286  1  0.08649201  0.93353707  0.68360313  1
  C  C287  1  0.06017251  0.93250571  0.68437464  1
  C  C288  1  0.05408918  0.91003060  0.68986687  1
  C  C289  1  0.07372553  0.88802055  0.69514657  1
  C  C290  1  0.10005621  0.89016414  0.69510129  1
  C  C291  1  0.10628639  0.91268036  0.68947308  1
  C  C292  1  0.06528648  0.86511858  0.70038358  1
  C  C293  1  0.07971424  0.84202702  0.70631705  1
  C  C294  1  0.02682401  0.01362861  0.48442191  1
  C  C295  1  0.04358910  0.01354150  0.47235013  1
  C  C296  1  0.03865190  0.01083303  0.45651290  1
  C  C297  1  0.06002420  0.00803881  0.44619978  1
  C  C298  1  0.05697372  0.00584480  0.43082195  1
  C  C299  1  0.03206738  0.00678076  0.42511245  1
  C  C300  1  0.01052836  0.00916487  0.43498060  1
  C  C301  1  0.01364108  0.01139641  0.45042514  1
  C  C302  1  0.04927814  0.00536159  0.39956715  1
  C  C303  1  0.03883468  0.00618018  0.38378294  1
  C  C304  1  0.03821406  0.98244196  0.37681951  1
  C  C305  1  0.02659098  0.98348583  0.36247546  1
  C  C306  1  0.01540791  0.00793475  0.35520009  1
  C  C307  1  0.01589059  0.03158458  0.36238283  1
  C  C308  1  0.02816063  0.03076593  0.37655996  1
  C  C309  1  0.03017754  0.05498988  0.38462931  1
  C  C310  1  0.05133128  0.95649682  0.38408208  1
  C  C311  1  0.00319081  0.00711711  0.34006983  1
  C  C312  1  0.02647685  0.95831164  0.35471551  1
  C  C313  1  0.99821743  0.93051907  0.34915766  1
  C  C314  1  0.01963262  0.91266288  0.34243874  1
  C  C315  1  0.01570897  0.89113651  0.33485671  1
  C  C316  1  0.99068853  0.88590957  0.33432004  1
  C  C317  1  0.96946877  0.90379100  0.34172763  1
  C  C318  1  0.97321942  0.92563103  0.34909912  1
  C  C319  1  0.98801604  0.86336267  0.32585826  1
  C  C320  1  0.00952699  0.84414626  0.32145801  1
  C  C321  1  0.00248656  0.05781207  0.35521309  1
  C  C322  1  0.01299408  0.09240578  0.34008575  1
  C  C323  1  0.98740424  0.10847038  0.34208815  1
  C  C324  1  0.98118897  0.13438997  0.33698851  1
  C  C325  1  1.00000208  0.14524016  0.32957457  1
  C  C326  1  0.02543370  0.12823786  0.32714461  1
  C  C327  1  0.03166679  0.10216261  0.33209416  1
  C  C328  1  0.99339888  0.17296108  0.32532661  1
  C  C329  1  0.00908540  0.18513428  0.31722959  1
  C  C330  1  0.03748331  0.58159821  0.79037039  1
  C  C331  1  0.05703446  0.54602225  0.80736961  1
  C  C332  1  0.03984516  0.62717893  0.77435055  1
  C  C333  1  0.05744407  0.39712817  0.76304614  1
  C  C334  1  0.05109472  0.45874329  0.79406512  1
  C  C335  1  0.07143555  0.50705460  0.82532222  1
  C  C336  1  0.02320530  0.52570081  0.81963010  1
  C  C337  1  0.05383167  0.50201422  0.79942505  1
  C  C338  1  0.93449826  0.56486458  0.87178824  1
  C  C339  1  0.00252656  0.55640812  0.85602650  1
  C  C340  1  0.05965288  0.61502228  0.78474705  1
  C  C341  1  0.05563146  0.41823158  0.77347721  1
  C  C342  1  0.11877370  0.49264628  0.82811229  1
  C  C343  1  0.05552296  0.46338140  0.77881857  1
  C  C344  1  0.05902148  0.59200975  0.79232897  1
  C  C345  1  0.97692578  0.54025213  0.83761799  1
  C  C346  1  0.07114941  0.64712151  0.76203517  1
  C  C347  1  0.91001637  0.55975099  0.87041633  1
  C  C348  1  0.05756758  0.37238054  0.76763089  1
  C  C349  1  0.95651908  0.55750674  0.86155545  1
  C  C350  1  0.04534758  0.64774835  0.76479241  1
  C  C351  1  0.01715903  0.61750202  0.77363365  1
  C  C352  1  0.01612037  0.59478201  0.78150891  1
  C  C353  1  0.04823752  0.43444495  0.79914380  1
  C  C354  1  0.16416754  0.48202486  0.84618592  1
  C  C355  1  0.13849578  0.48729200  0.85267992  1
  C  C356  1  0.16616334  0.48095071  0.83021664  1
  C  C357  1  0.00045991  0.54554214  0.84200407  1
  C  C358  1  0.18715941  0.47644721  0.85553374  1
  C  C359  1  0.18656985  0.48226473  0.87074060  1
  C  C360  1  0.95513947  0.54628208  0.84724426  1
  C  C361  1  0.98096597  0.56200476  0.86572617  1
  C  C362  1  0.05026885  0.41440262  0.78891136  1
  C  C363  1  0.05150645  0.52018375  0.81303215  1
  C  C364  1  0.11612864  0.49206467  0.84378976  1
  C  C365  1  0.05746699  0.44332940  0.76861773  1
  C  C366  1  0.14381227  0.48636119  0.82131775  1
  C  C367  1  0.04557111  0.56754273  0.23384257  1
  C  C368  1  0.02697511  0.54344948  0.21627479  1
  C  C369  1  0.04167297  0.61319644  0.25037212  1
  C  C370  1  0.02869232  0.39055820  0.26110429  1
  C  C371  1  0.03181328  0.45296831  0.23106201  1
  C  C372  1  0.01122865  0.51332031  0.19923730  1
  C  C373  1  0.05972272  0.50404013  0.20505815  1
  C  C374  1  0.02792446  0.49844792  0.22547870  1
  C  C375  1  0.14926340  0.48612580  0.15265434  1
  C  C376  1  0.08312522  0.52154870  0.16830206  1
  C  C377  1  0.02156333  0.61133735  0.24034537  1
  C  C378  1  0.03086394  0.41199358  0.25127955  1
  C  C379  1  0.96412012  0.52911979  0.19666383  1
  C  C380  1  0.02825190  0.45825003  0.24645058  1
  C  C381  1  0.02370627  0.58895190  0.23192324  1
  C  C382  1  0.10566587  0.49009114  0.18715798  1
  C  C383  1  0.01610788  0.65656566  0.25930975  1
  C  C384  1  0.17118985  0.46500297  0.15445957  1
  C  C385  1  0.03220643  0.36580864  0.25576974  1
  C  C386  1  0.12728916  0.49364961  0.16291995  1
  C  C387  1  0.03830948  0.63631397  0.25951799  1
  C  C388  1  0.06430876  0.59164751  0.25144707  1
  C  C389  1  0.06607796  0.56887567  0.24342992  1
  C  C390  1  0.03576743  0.42754385  0.22567069  1
  C  C391  1  0.91960070  0.55039393  0.17891680  1
  C  C392  1  0.94468603  0.53941223  0.17222410  1
  C  C393  1  0.91740067  0.54874933  0.19485115  1
  C  C394  1  0.08368613  0.50972543  0.18251951  1
  C  C395  1  0.89727061  0.56154332  0.16962407  1
  C  C396  1  0.89969765  0.56912690  0.15477568  1
  C  C397  1  0.12725603  0.48221205  0.17751072  1
  C  C398  1  0.10455887  0.51353391  0.15862349  1
  C  C399  1  0.03475536  0.40733090  0.23562701  1
  C  C400  1  0.03149102  0.51476175  0.21144102  1
  C  C401  1  0.96659573  0.52844332  0.18097376  1
  C  C402  1  0.02805991  0.43782869  0.25646537  1
  C  C403  1  0.93945365  0.53860271  0.20361953  1
  C  C404  1  0.76368189  0.61112624  0.06488056  1
  C  C405  1  0.73348831  0.61907541  0.06440920  1
  C  C406  1  0.72503617  0.60402086  0.05167003  1
  C  C407  1  0.76607674  0.60576696  0.03727705  1
  C  C408  1  0.77351832  0.62103294  0.05017212  1
  C  C409  1  0.72392075  0.61337263  0.02466812  1
  C  C410  1  0.60929327  0.60536802  0.01269328  1
  C  C411  1  0.62619634  0.60569186  0.99824753  1
  C  C412  1  0.64342165  0.62502308  -0.00091257  1
  C  C413  1  0.68538005  0.61981036  0.01217486  1
  C  C414  1  0.64546324  0.62003949  0.02673868  1
  C  C415  1  0.62775424  0.60116736  0.02646146  1
  C  C416  1  0.72251102  0.62251529  -0.00041288  1
  C  C417  1  0.76572144  0.63213470  0.95949282  1
  C  C418  1  0.77881516  0.61914669  0.97413384  1
  C  C419  1  0.73760178  0.62825697  0.95915664  1
  C  C420  1  0.72139038  0.63788287  0.97340172  1
  C  C421  1  0.76251746  0.62921361  0.98818327  1
  C  C422  1  0.32835202  0.39997489  0.95862523  1
  C  C423  1  0.35319861  0.41010416  0.96032355  1
  C  C424  1  0.37229892  0.39393908  0.97191364  1
  C  C425  1  0.33513272  0.38383579  0.98582946  1
  C  C426  1  0.31574617  0.40007457  0.97444329  1
  C  C427  1  0.36780327  0.40058092  -0.00072677  1
  C  C428  1  0.46250152  0.44801777  0.01127811  1
  C  C429  1  0.45652117  0.43470700  0.02601260  1
  C  C430  1  0.42732464  0.43499283  0.02569133  1
  C  C431  1  0.39773091  0.41639091  0.01171187  1
  C  C432  1  0.43238100  0.42834361  0.99724254  1
  C  C433  1  0.46143367  0.42861254  0.99865167  1
  C  C434  1  0.36234546  0.40894531  0.02427793  1
  C  C435  1  0.31292434  0.41933097  0.06301971  1
  C  C436  1  0.31214316  0.39781681  0.05170511  1
  C  C437  1  0.34228422  0.41825721  0.06460304  1
  C  C438  1  0.35343199  0.42549355  0.04961003  1
  C  C439  1  0.32211162  0.40444152  0.03624523  1
  C  C440  1  0.89036724  0.56904835  0.88095872  1
  C  C441  1  0.87294154  0.57726724  0.89040788  1
  C  C442  1  0.85403876  0.58677832  0.90177086  1
  C  C443  1  0.84186011  0.56936434  0.90965206  1
  C  C444  1  0.82330210  0.57824915  0.92070854  1
  C  C445  1  0.81568917  0.60517739  0.92467941  1
  C  C446  1  0.82828080  0.62250438  0.91702332  1
  C  C447  1  0.84685533  0.61361434  0.90594675  1
  C  C448  1  0.79660377  0.61426262  0.93606341  1
  C  C449  1  0.78097222  0.62154021  0.94652524  1
  C  C450  1  0.87863334  0.57587072  0.14506071  1
  C  C451  1  0.86213792  0.58255806  0.13510127  1
  C  C452  1  0.84366079  0.59107830  0.12355917  1
  C  C453  1  0.82167578  0.58040093  0.12211486  1
  C  C454  1  0.80344587  0.58949852  0.11108064  1
  C  C455  1  0.80621955  0.60973494  0.10098524  1
  C  C456  1  0.82877074  0.61951599  0.10193412  1
  C  C457  1  0.84703004  0.61046185  0.11297172  1
  C  C458  1  0.78812116  0.61763211  0.08910095  1
  C  C459  1  0.77418209  0.62028725  0.07779376  1
  C  C460  1  0.20699371  0.47117298  0.88042559  1
  C  C461  1  0.22294467  0.46249686  0.89046261  1
  C  C462  1  0.24081158  0.45287550  0.90221788  1
  C  C463  1  0.25910473  0.42781552  0.90151587  1
  C  C464  1  0.27646889  0.41867163  0.91302457  1
  C  C465  1  0.27675754  0.43392129  0.92605614  1
  C  C466  1  0.25817947  0.45882214  0.92684390  1
  C  C467  1  0.24081291  0.46795816  0.91533581  1
  C  C468  1  0.29467785  0.42444948  0.93784101  1
  C  C469  1  0.31019384  0.41508184  0.94796210  1
  C  C470  1  0.19080649  0.45877789  0.14356986  1
  C  C471  1  0.20843136  0.45178688  0.13408227  1
  C  C472  1  0.22786861  0.44367167  0.12280639  1
  C  C473  1  0.22311656  0.42928407  0.11021380  1
  C  C474  1  0.24201168  0.42112439  0.09923140  1
  C  C475  1  0.26686156  0.42695284  0.10002489  1
  C  C476  1  0.27160260  0.44139061  0.11255597  1
  C  C477  1  0.25269439  0.44955415  0.12356929  1
  C  C478  1  0.28576736  0.41958343  0.08828750  1
  C  C479  1  0.30025912  0.41659436  0.07706092  1
  C  C480  1  0.52203965  0.49235271  0.01222497  1
  C  C481  1  0.53042234  0.46456125  0.01221856  1
  C  C482  1  0.51238199  0.44935661  0.01188001  1
  C  C483  1  0.48504674  0.46142542  0.01161815  1
  C  C484  1  0.47675900  0.48889591  0.01262875  1
  C  C485  1  0.49456259  0.50398166  0.01245575  1
  C  C486  1  0.53909094  0.50918474  0.01216523  1
  C  C487  1  0.55163101  0.52580543  0.01207739  1
  C  C488  1  0.56503924  0.54585505  0.01198650  1
  C  C489  1  0.59290834  0.53919001  0.01206658  1
  C  C490  1  0.60668685  0.55822445  0.01202071  1
  C  C491  1  0.59336235  0.58515224  0.01221720  1
  C  C492  1  0.56562823  0.59202476  0.01179661  1
  C  C493  1  0.55179057  0.57295442  0.01172174  1
  C  C494  1  0.09221911  0.20455302  0.71055406  1
  C  C495  1  0.07218427  0.22691364  0.71867392  1
  C  C496  1  0.08673216  0.24732222  0.72336261  1
  C  C497  1  0.07069481  0.27012933  0.73088253  1
  C  C498  1  0.04413707  0.35494854  0.75940575  1
  C  C499  1  0.06279199  0.33242667  0.75075528  1
  C  C500  1  0.04732488  0.31374367  0.74505221  1
  C  C501  1  0.06335808  0.29110403  0.73745378  1
  C  C502  1  0.06491122  0.82282097  0.71192713  1
  C  C503  1  0.08002599  0.79655048  0.71877880  1
  C  C504  1  0.05955792  0.78217628  0.72426906  1
  C  C505  1  0.07011365  0.75677469  0.73121859  1
  C  C506  1  0.08344355  0.66828934  0.75631615  1
  C  C507  1  0.06615290  0.69423290  0.75004222  1
  C  C508  1  0.08501744  0.71011384  0.74417997  1
  C  C509  1  0.07290420  0.73535841  0.73747318  1
  C  C510  1  0.01271512  0.82900844  0.30686924  1
  C  C511  1  0.00244871  0.80402728  0.30625233  1
  C  C512  1  0.01765665  0.78598116  0.29391380  1
  C  C513  1  0.00961438  0.76212272  0.29194044  1
  C  C514  1  0.00615780  0.67358876  0.27266292  1
  C  C515  1  0.01621464  0.69850262  0.27364145  1
  C  C516  1  0.00033420  0.71668871  0.28561211  1
  C  C517  1  0.00822615  0.74061159  0.28752395  1
  C  C518  1  0.01007163  0.21302813  0.31977321  1
  C  C519  1  0.00735633  0.23136467  0.30592616  1
  C  C520  1  0.01677702  0.25575530  0.30956073  1
  C  C521  1  0.01398469  0.27424625  0.29718454  1
  C  C522  1  0.01568210  0.34742009  0.26032717  1
  C  C523  1  0.02204554  0.33235566  0.27547058  1
  C  C524  1  0.01034572  0.30869564  0.27515421  1
  C  C525  1  0.01430076  0.29261988  0.28859708  1
  C  C526  1  0.03455550  0.01962439  0.49909824  1
  C  C527  1  0.04757828  0.03895571  0.50253370  1
  C  C528  1  0.05802806  0.03717429  0.51709854  1
  C  C529  1  0.05286069  0.01700882  0.52619398  1
  S  S530  1  0.03403681  1.00049335  0.51551954  1
  N  N531  1  0.73754320  0.61666896  0.01203867  1
  N  N532  1  0.69776267  0.61504393  0.02559893  1
  N  N533  1  0.65957868  0.62002571  0.01249434  1
  N  N534  1  0.73772924  0.60855465  0.03754445  1
  N  N535  1  0.69637645  0.62388514  -0.00131431  1
  N  N536  1  0.73562838  0.62667248  0.98690460  1
  N  N537  1  0.35324594  0.39952137  0.01193735  1
  N  N538  1  0.39022115  0.40881769  0.99835742  1
  N  N539  1  0.42061879  0.42386247  0.01177811  1
  N  N540  1  0.35911314  0.39272107  0.98634585  1
  N  N541  1  0.38470352  0.41714450  0.02506833  1
  N  N542  1  0.34790323  0.40992294  0.03719365  1
  O  O543  1  0.08684713  0.01563026  0.61251700  1
  O  O544  1  0.09354026  0.95453027  0.67740747  1
  O  O545  1  0.06924148  0.08066373  0.66877669  1
  O  O546  1  0.02773681  0.00493415  0.41012281  1
  O  O547  1  0.02065204  0.06713714  0.34529354  1
  O  O548  1  0.00062487  0.95280329  0.35592190  1
  O  O549  1  0.03615861  0.55853506  0.79698647  1
  O  O550  1  0.09767129  0.49855074  0.81871040  1
  O  O551  1  0.02221809  0.54151320  0.83288934  1
  O  O552  1  0.04903617  0.47752632  0.80464960  1
  O  O553  1  0.04809947  0.54470754  0.22637680  1
  O  O554  1  0.98501868  0.52000025  0.20595498  1
  O  O555  1  0.06226133  0.51907446  0.19160843  1
  O  O556  1  0.03126001  0.47189686  0.22041748  1
