# generated using pymatgen
data_H74C137(N5O4)2
_symmetry_space_group_name_H-M   'P 1'
_cell_length_a   34.38175918
_cell_length_b   32.18525214
_cell_length_c   79.04693482
_cell_angle_alpha   91.02212224
_cell_angle_beta   91.32582492
_cell_angle_gamma   90.64113779
_symmetry_Int_Tables_number   1
_chemical_formula_structural   H74C137(N5O4)2
_chemical_formula_sum   'H148 C274 N20 O16'
_cell_volume   87428.97594752
_cell_formula_units_Z   2
loop_
 _symmetry_equiv_pos_site_id
 _symmetry_equiv_pos_as_xyz
  1  'x, y, z'
loop_
 _atom_site_type_symbol
 _atom_site_label
 _atom_site_symmetry_multiplicity
 _atom_site_fract_x
 _atom_site_fract_y
 _atom_site_fract_z
 _atom_site_occupancy
  H  H0  1  -0.00632352  0.40572123  0.00459658  1
  H  H1  1  -0.00842643  0.18870125  0.03602014  1
  H  H2  1  0.00010194  0.18235362  0.98300657  1
  H  H3  1  0.02201480  0.05859726  0.99999575  1
  H  H4  1  -0.01202269  0.29651702  0.97289042  1
  H  H5  1  0.00893439  0.28585274  0.02670289  1
  H  H6  1  0.40702250  0.99191681  0.49935966  1
  H  H7  1  0.19106858  0.98129759  0.53049931  1
  H  H8  1  0.19258135  -0.00992847  0.47631180  1
  H  H9  1  0.08508349  0.00441437  0.50277265  1
  H  H10  1  0.29818934  0.00275102  0.47235201  1
  H  H11  1  0.29941130  0.99915625  0.52653800  1
  H  H12  1  0.19432922  0.26400787  0.75465564  1
  H  H13  1  0.27907651  0.29629263  0.73580642  1
  H  H14  1  0.30122556  0.21509556  0.75587196  1
  H  H15  1  0.21659279  0.18076474  0.73539049  1
  H  H16  1  0.19195410  0.21489992  0.24659114  1
  H  H17  1  0.27722314  0.18263626  0.26611261  1
  H  H18  1  0.29898333  0.26550114  0.24719837  1
  H  H19  1  0.21540238  0.29701310  0.26721432  1
  H  H20  1  0.19109320  0.78152766  0.79408177  1
  H  H21  1  0.20866309  0.84705516  0.77870281  1
  H  H22  1  0.32143194  0.84862731  0.80117608  1
  H  H23  1  0.30626772  0.78361041  0.81738139  1
  H  H24  1  0.19165921  0.69375098  0.79337487  1
  H  H25  1  0.20871381  0.62749742  0.77772240  1
  H  H26  1  0.30588898  0.69344609  0.81753612  1
  H  H27  1  0.27245963  0.69729522  0.85565622  1
  H  H28  1  0.25430302  0.63725627  0.87243165  1
  H  H29  1  0.14131717  0.63305488  0.84738517  1
  H  H30  1  0.16015606  0.69157815  0.82981494  1
  H  H31  1  0.27155455  0.78058318  0.85619556  1
  H  H32  1  0.25190269  0.83952897  0.87413746  1
  H  H33  1  0.14352140  0.84668168  0.84574466  1
  H  H34  1  0.16116432  0.78504688  0.82888712  1
  H  H35  1  0.32072631  0.62779933  0.80098122  1
  H  H36  1  0.78800413  0.29925835  0.31984140  1
  H  H37  1  0.84878050  0.31516203  0.30363281  1
  H  H38  1  0.84453122  0.19607178  0.28021277  1
  H  H39  1  0.78273739  0.17800317  0.29526425  1
  H  H40  1  0.70106937  0.29894135  0.31968686  1
  H  H41  1  0.63980292  0.31473361  0.30281364  1
  H  H42  1  0.70446484  0.17896774  0.29417922  1
  H  H43  1  0.69969143  0.14834384  0.33087612  1
  H  H44  1  0.63956063  0.13046084  0.34507811  1
  H  H45  1  0.64575159  0.24646364  0.37316431  1
  H  H46  1  0.70301146  0.26687205  0.35742596  1
  H  H47  1  0.78926466  0.14953875  0.33054101  1
  H  H48  1  0.84940941  0.13163531  0.34591935  1
  H  H49  1  0.84368787  0.24601292  0.37496059  1
  H  H50  1  0.78467831  0.26520923  0.35902090  1
  H  H51  1  0.64212842  0.19675730  0.27851751  1
  H  H52  1  0.15955209  0.77962271  0.16836456  1
  H  H53  1  0.13746431  0.83687746  0.15090097  1
  H  H54  1  0.25229795  0.84661915  0.12988311  1
  H  H55  1  0.27103834  0.78326415  0.14417791  1
  H  H56  1  0.16730911  0.69170157  0.17406094  1
  H  H57  1  0.13347444  0.63483427  0.16093378  1
  H  H58  1  0.26276189  0.70083420  0.14107613  1
  H  H59  1  0.30218753  0.69234082  0.18223089  1
  H  H60  1  0.31975079  0.63144337  0.20055063  1
  H  H61  1  0.20993174  0.63469290  0.22346494  1
  H  H62  1  0.19094460  0.69767103  0.20672571  1
  H  H63  1  0.30221018  0.78467390  0.18201177  1
  H  H64  1  0.31874947  0.84925599  0.19948582  1
  H  H65  1  0.20869468  0.84554712  0.22226149  1
  H  H66  1  0.19011335  0.78007992  0.20578738  1
  H  H67  1  0.26488338  0.62834506  0.13384547  1
  H  H68  1  0.70377759  0.15139556  0.67223352  1
  H  H69  1  0.64244575  0.13398804  0.65694753  1
  H  H70  1  0.65274843  0.24630915  0.62823846  1
  H  H71  1  0.71282789  0.26524302  0.64417144  1
  H  H72  1  0.79408489  0.14929183  0.67106810  1
  H  H73  1  0.84779338  0.12796212  0.65330991  1
  H  H74  1  0.78865323  0.26608757  0.64497527  1
  H  H75  1  0.79482731  0.29819686  0.68350626  1
  H  H76  1  0.85738688  0.31509698  0.69979323  1
  H  H77  1  0.85338600  0.19895683  0.72395722  1
  H  H78  1  0.78967136  0.18034566  0.70893442  1
  H  H79  1  0.70667243  0.29776973  0.68279693  1
  H  H80  1  0.64496251  0.31398404  0.69828767  1
  H  H81  1  0.64810562  0.19767794  0.72228629  1
  H  H82  1  0.71094573  0.17962175  0.70806186  1
  H  H83  1  0.84778760  0.24858998  0.63006131  1
  H  H84  1  0.01600582  0.38791695  0.92998920  1
  H  H85  1  0.08958068  0.44730152  0.96838571  1
  H  H86  1  0.05340615  0.41108011  -0.00944826  1
  H  H87  1  0.98186764  0.34924469  0.95202935  1
  H  H88  1  0.18604554  0.56579437  0.91336748  1
  H  H89  1  0.21808315  0.61481838  0.89437942  1
  H  H90  1  0.14776158  0.56674064  0.85244420  1
  H  H91  1  0.11535972  0.51814696  0.87151087  1
  H  H92  1  0.11684167  0.04881004  0.43229195  1
  H  H93  1  0.01710777  0.02913209  0.46319186  1
  H  H94  1  0.05753635  0.98394619  0.48122722  1
  H  H95  1  0.15905206  0.01851244  0.45427325  1
  H  H96  1  0.89618614  0.13674925  0.41341286  1
  H  H97  1  0.84600208  0.16849027  0.39505267  1
  H  H98  1  0.92802675  0.17587805  0.35479163  1
  H  H99  1  0.97936993  0.14907179  0.37384105  1
  H  H100  1  0.10545801  0.38423105  0.05452514  1
  H  H101  1  1.00101726  0.45618122  0.05805059  1
  H  H102  1  0.96911260  0.41099346  0.03622871  1
  H  H103  1  0.07115732  0.33434481  0.03516239  1
  H  H104  1  0.09559758  0.59019867  0.10912919  1
  H  H105  1  0.10554821  0.63274291  0.13386088  1
  H  H106  1  0.24287831  0.57076000  0.12330822  1
  H  H107  1  0.19930775  0.52140075  0.11063687  1
  H  H108  1  0.37764647  0.04514360  0.57101136  1
  H  H109  1  0.47630362  0.02703701  0.53927494  1
  H  H110  1  0.43503848  0.98053925  0.52097206  1
  H  H111  1  0.33468077  0.01345333  0.54888937  1
  H  H112  1  0.59643604  0.14070609  0.58918791  1
  H  H113  1  0.64739157  0.17294355  0.60803670  1
  H  H114  1  0.56694674  0.17545282  0.64911533  1
  H  H115  1  0.51467860  0.14832862  0.62969462  1
  H  H116  1  0.05113464  0.11905828  0.93483699  1
  H  H117  1  0.03370806  0.00307630  0.95998565  1
  H  H118  1  -0.01077981  0.03992045  0.97936552  1
  H  H119  1  0.02195846  0.15660141  0.95878305  1
  H  H120  1  0.14953153  0.88928159  0.91364875  1
  H  H121  1  0.18345681  0.83942796  0.89510984  1
  H  H122  1  0.17790988  0.92683460  0.85441742  1
  H  H123  1  0.14904916  0.97880408  0.87369236  1
  H  H124  1  0.05198964  0.09315120  0.53869445  1
  H  H125  1  0.08547843  0.99731350  0.57339048  1
  H  H126  1  0.12945595  0.96768420  0.55214231  1
  H  H127  1  0.09400881  0.06189140  0.51706708  1
  H  H128  1  0.95401659  0.09655297  0.62986364  1
  H  H129  1  0.90786731  0.12997075  0.64893992  1
  H  H130  1  0.87985773  0.21907652  0.61054581  1
  H  H131  1  0.93064698  0.18976195  0.59269525  1
  H  H132  1  0.99875642  0.06278494  0.06598162  1
  H  H133  1  0.11137101  0.07514258  0.04505018  1
  H  H134  1  0.09144640  0.08517204  0.01579720  1
  H  H135  1  0.97323328  0.12623813  0.05357228  1
  H  H136  1  0.19711820  0.93930647  0.09398296  1
  H  H137  1  0.22798367  0.88801139  0.11234174  1
  H  H138  1  0.13254614  0.89876863  0.14640096  1
  H  H139  1  0.09728467  0.94157891  0.12582122  1
  H  H140  1  0.40119535  0.10505851  0.45251646  1
  H  H141  1  0.44858157  0.98434264  0.44167270  1
  H  H142  1  0.40611869  0.95333569  0.46294854  1
  H  H143  1  0.35523491  0.07308102  0.47226717  1
  H  H144  1  0.57088083  0.07759385  0.38595576  1
  H  H145  1  0.62303071  0.10488579  0.36847064  1
  H  H146  1  0.58548660  0.22990121  0.37948943  1
  H  H147  1  0.53728791  0.20236762  0.39894305  1
  C  C148  1  0.03217322  0.10151631  0.02045490  1
  C  C149  1  0.00955851  0.11925290  0.99085555  1
  C  C150  1  0.01917340  0.09129652  0.00366273  1
  C  C151  1  -0.00148257  0.16539345  0.02640058  1
  C  C152  1  0.00416320  0.16210829  0.99380922  1
  C  C153  1  0.00163704  0.18177460  0.00989798  1
  C  C154  1  -0.00100533  0.35406664  0.98691913  1
  C  C155  1  0.00440222  0.34839715  0.01753197  1
  C  C156  1  -0.00239537  0.37224523  0.00318989  1
  C  C157  1  -0.00695393  0.31124365  0.98526073  1
  C  C158  1  0.00497737  0.30514113  0.01559934  1
  C  C159  1  -0.00258130  0.28675746  -0.00041486  1
  C  C160  1  0.13609257  0.99671161  0.51823775  1
  C  C161  1  0.13552430  -0.00243276  0.48716192  1
  C  C162  1  0.11627418  -0.00057876  0.50257927  1
  C  C163  1  0.17516036  0.98557669  0.51860113  1
  C  C164  1  0.17577480  -0.00902930  0.48779131  1
  C  C165  1  0.19470687  -0.01604881  0.50337025  1
  C  C166  1  0.35524498  -0.00156721  0.48433188  1
  C  C167  1  0.35657105  0.99780121  0.51526331  1
  C  C168  1  0.37550373  0.99396417  0.49972703  1
  C  C169  1  0.31489016  0.00149911  0.48419945  1
  C  C170  1  0.31572988  0.99920958  0.51491794  1
  C  C171  1  0.29544282  1.00026551  0.49945629  1
  C  C172  1  0.21036336  0.33524202  0.79107649  1
  C  C173  1  0.22608469  0.26993910  0.75367454  1
  C  C174  1  0.27567057  0.26316656  0.73173758  1
  C  C175  1  0.37620859  0.24261987  0.72556898  1
  C  C176  1  0.28071472  0.14126866  0.79227561  1
  C  C177  1  0.26941323  0.20927763  0.75433309  1
  C  C178  1  0.22008595  0.21341005  0.73123880  1
  C  C179  1  0.12002379  0.23375703  0.72441366  1
  C  C180  1  0.24782560  0.23893573  0.74262718  1
  C  C181  1  0.20866236  0.14602423  0.20936201  1
  C  C182  1  0.22369579  0.20935254  0.24795509  1
  C  C183  1  0.27426377  0.21541949  0.27053764  1
  C  C184  1  0.37469565  0.23345266  0.27622837  1
  C  C185  1  0.27970231  0.33965722  0.21107664  1
  C  C186  1  0.26731789  0.27086108  0.24852626  1
  C  C187  1  0.21893949  0.26411126  0.27098238  1
  C  C188  1  0.11856280  0.24400549  0.27818018  1
  C  C189  1  0.24608069  0.23998678  0.25962044  1
  C  C190  1  0.22656732  0.73825527  0.83216558  1
  C  C191  1  0.23875811  0.73811500  0.81592320  1
  C  C192  1  0.24765510  0.77756268  0.80674086  1
  C  C193  1  0.24774700  0.69848474  0.80650333  1
  C  C194  1  0.21737664  0.69965986  0.84166028  1
  C  C195  1  0.21708896  0.77724460  0.84170657  1
  C  C196  1  0.21994886  0.79540315  0.79583800  1
  C  C197  1  0.22918758  0.83222506  0.78713473  1
  C  C198  1  0.26516773  0.84804352  0.78980934  1
  C  C199  1  0.29341146  0.83319446  0.79998401  1
  C  C200  1  0.28442467  0.79664917  0.80888965  1
  C  C201  1  0.22020156  0.68005409  0.79524647  1
  C  C202  1  0.22918402  0.64286497  0.78638656  1
  C  C203  1  0.26482993  0.62740217  0.78924093  1
  C  C204  1  0.29295623  0.64294070  0.79970150  1
  C  C205  1  0.28416692  0.67981468  0.80880396  1
  C  C206  1  0.24348399  0.68355163  0.85383555  1
  C  C207  1  0.23302999  0.64987556  0.86352360  1
  C  C208  1  0.19613660  0.63074419  0.86137557  1
  C  C209  1  0.17062566  0.64609946  0.84879360  1
  C  C210  1  0.18097475  0.67976570  0.83913433  1
  C  C211  1  0.24279414  0.79389102  0.85428217  1
  C  C212  1  0.23179554  0.82716783  0.86438708  1
  C  C213  1  0.19559101  0.84596013  0.86166568  1
  C  C214  1  0.17148890  0.83193293  0.84808641  1
  C  C215  1  0.18151145  0.79732508  0.83857221  1
  C  C216  1  0.74426529  0.21779902  0.33460445  1
  C  C217  1  0.74404501  0.22830976  0.31795169  1
  C  C218  1  0.78081220  0.23746832  0.30866787  1
  C  C219  1  0.70712359  0.23762736  0.30821736  1
  C  C220  1  0.70740547  0.20813988  0.34364421  1
  C  C221  1  0.78142101  0.20809819  0.34398932  1
  C  C222  1  0.79963410  0.27613528  0.31117262  1
  C  C223  1  0.83378160  0.28557525  0.30225731  1
  C  C224  1  0.84690898  0.25570582  0.29182707  1
  C  C225  1  0.83119428  0.21782940  0.28881029  1
  C  C226  1  0.79654016  0.20829777  0.29738590  1
  C  C227  1  0.68882465  0.27598640  0.31073369  1
  C  C228  1  0.65444914  0.28538674  0.30142645  1
  C  C229  1  0.64064961  0.25579366  0.29060490  1
  C  C230  1  0.65595604  0.21829378  0.28747269  1
  C  C231  1  0.69086078  0.20886610  0.29641840  1
  C  C232  1  0.68827470  0.16990002  0.34029335  1
  C  C233  1  0.65526741  0.15875212  0.34898400  1
  C  C234  1  0.64044952  0.18467579  0.36182873  1
  C  C235  1  0.65740798  0.22463056  0.36393919  1
  C  C236  1  0.69036457  0.23597373  0.35518170  1
  C  C237  1  0.80116757  0.17108155  0.34018239  1
  C  C238  1  0.83506155  0.16080829  0.34893836  1
  C  C239  1  0.84972067  0.18639343  0.36224465  1
  C  C240  1  0.83120999  0.22429087  0.36552387  1
  C  C241  1  0.79787901  0.23518070  0.35644775  1
  C  C242  1  0.23565117  0.73769031  0.18316062  1
  C  C243  1  0.22577312  0.73667278  0.16634459  1
  C  C244  1  0.21634435  0.77574605  0.15712736  1
  C  C245  1  0.21457667  0.69684729  0.15732308  1
  C  C246  1  0.24515315  0.69946201  0.19308466  1
  C  C247  1  0.24505283  0.77742433  0.19278963  1
  C  C248  1  0.17955433  0.79344239  0.15948030  1
  C  C249  1  0.16768563  0.82732385  0.15020255  1
  C  C250  1  0.19312481  0.84732384  0.13909729  1
  C  C251  1  0.23087890  0.83101446  0.13757843  1
  C  C252  1  0.24191678  0.79541023  0.14606211  1
  C  C253  1  0.18023889  0.67736454  0.16296040  1
  C  C254  1  0.15995069  0.64546600  0.15481138  1
  C  C255  1  0.20390022  0.61638633  0.13276838  1
  C  C256  1  0.23715203  0.64097255  0.13780903  1
  C  C257  1  0.23791824  0.68128855  0.14429925  1
  C  C258  1  0.28143001  0.68046229  0.19119651  1
  C  C259  1  0.29166089  0.64603119  0.20121365  1
  C  C260  1  0.26472273  0.63243297  0.21192537  1
  C  C261  1  0.22925901  0.64816567  0.21441842  1
  C  C262  1  0.21912711  0.68344701  0.20485964  1
  C  C263  1  0.28120061  0.79728466  0.19076516  1
  C  C264  1  0.29090618  0.83364489  0.20035872  1
  C  C265  1  0.26371659  0.84784363  0.21088259  1
  C  C266  1  0.22829976  0.83137498  0.21342925  1
  C  C267  1  0.21851136  0.79453091  0.20414359  1
  C  C268  1  0.75057910  0.22840649  0.68547218  1
  C  C269  1  0.75041825  0.21872555  0.66858587  1
  C  C270  1  0.71329511  0.20909876  0.65904529  1
  C  C271  1  0.78654603  0.20896912  0.65915953  1
  C  C272  1  0.78777807  0.23807968  0.69513818  1
  C  C273  1  0.71361571  0.23773161  0.69453579  1
  C  C274  1  0.69231551  0.17267438  0.66281627  1
  C  C275  1  0.65796655  0.16270636  0.65414669  1
  C  C276  1  0.64442740  0.18804761  0.64102563  1
  C  C277  1  0.66450179  0.22511756  0.63762432  1
  C  C278  1  0.69823975  0.23580317  0.64664787  1
  C  C279  1  0.80526665  0.17088362  0.66181148  1
  C  C280  1  0.83680778  0.15945050  0.65224528  1
  C  C281  1  0.85281567  0.18661850  0.64035192  1
  C  C282  1  0.83505148  0.22559079  0.63830773  1
  C  C283  1  0.80202937  0.23601510  0.64714127  1
  C  C284  1  0.80698002  0.27602371  0.69236156  1
  C  C285  1  0.84201409  0.28600379  0.70134106  1
  C  C286  1  0.85553968  0.25716108  0.71199934  1
  C  C287  1  0.83952438  0.21995947  0.71524544  1
  C  C288  1  0.80388524  0.21004180  0.70667387  1
  C  C289  1  0.69466786  0.27543918  0.69150306  1
  C  C290  1  0.66001531  0.28501642  0.70000179  1
  C  C291  1  0.64641102  0.25599094  0.71043102  1
  C  C292  1  0.66200785  0.21888738  0.71381069  1
  C  C293  1  0.69725326  0.20935110  0.70571413  1
  C  C294  1  0.02411406  0.39273666  0.94330672  1
  C  C295  1  0.05444822  0.42160049  0.94754820  1
  C  C296  1  0.06495779  0.42694783  0.96497069  1
  C  C297  1  0.04474827  0.40697450  0.97727832  1
  C  C298  1  0.01453205  0.37855172  0.97289159  1
  C  C299  1  1.00525250  0.37092076  0.95565828  1
  C  C300  1  0.07380157  0.44449126  0.93533447  1
  C  C301  1  0.09103740  0.46617379  0.92526376  1
  C  C302  1  0.11005016  0.49051847  0.91465106  1
  C  C303  1  0.12751736  0.51292809  0.90491994  1
  C  C304  1  0.14693531  0.53963002  0.89405805  1
  C  C305  1  0.17744016  0.56663299  0.90000777  1
  C  C306  1  0.19530647  0.59399512  0.88935344  1
  C  C307  1  0.18245122  0.59722851  0.87231897  1
  C  C308  1  0.15444441  0.56827671  0.86596922  1
  C  C309  1  0.13720400  0.54023278  0.87651517  1
  C  C310  1  0.10438209  0.03840904  0.44407952  1
  C  C311  1  0.06396000  0.04434093  0.44648952  1
  C  C312  1  0.04820237  0.02599395  0.46106516  1
  C  C313  1  0.07132686  0.00481882  0.47243092  1
  C  C314  1  0.11227933  1.00764015  0.47179407  1
  C  C315  1  0.12803167  0.02116477  0.45646891  1
  C  C316  1  0.03991563  0.06537199  0.43493630  1
  C  C317  1  0.01769059  0.08351385  0.42525927  1
  C  C318  1  0.99281726  0.10286485  0.41486971  1
  C  C319  1  0.96951357  0.12031692  0.40545262  1
  C  C320  1  0.94151618  0.13893389  0.39490652  1
  C  C321  1  0.90318333  0.14595417  0.40061500  1
  C  C322  1  0.87512308  0.16350314  0.39033209  1
  C  C323  1  0.88290918  0.17237007  0.37337268  1
  C  C324  1  0.92085749  0.16692013  0.36758453  1
  C  C325  1  0.94969419  0.15184231  0.37826260  1
  C  C326  1  0.07510597  0.38911243  0.05085342  1
  C  C327  1  0.05633664  0.42480877  0.05745807  1
  C  C328  1  0.01699187  0.43065370  0.05233163  1
  C  C329  1  0.99924762  0.40539535  0.04001053  1
  C  C330  1  0.01887090  0.37109767  0.03315729  1
  C  C331  1  0.05613512  0.36179970  0.03976791  1
  C  C332  1  0.07624633  0.45215803  0.06872177  1
  C  C333  1  0.09416037  0.47610689  0.07841010  1
  C  C334  1  0.11364193  0.50218490  0.08896111  1
  C  C335  1  0.13047823  0.52682353  0.09872628  1
  C  C336  1  0.14779482  0.55623694  0.11004588  1
  C  C337  1  0.12403621  0.58965930  0.11554877  1
  C  C338  1  0.13049368  0.61566831  0.12929562  1
  C  C339  1  0.16604531  0.62638526  0.13835249  1
  C  C340  1  0.21214281  0.57864126  0.12328318  1
  C  C341  1  0.18730702  0.55060825  0.11527806  1
  C  C342  1  0.38946918  0.03500485  0.55895023  1
  C  C343  1  0.42966905  0.04188926  0.55619486  1
  C  C344  1  0.44524435  0.02327989  0.54146378  1
  C  C345  1  0.42165557  0.00168595  0.52995218  1
  C  C346  1  0.38082467  1.00529387  0.53066972  1
  C  C347  1  0.36546827  0.01762241  0.54642668  1
  C  C348  1  0.45367663  0.06399571  0.56781032  1
  C  C349  1  0.47582759  0.08318679  0.57757354  1
  C  C350  1  0.50060341  0.10358025  0.58807056  1
  C  C351  1  0.52400268  0.12181903  0.59758018  1
  C  C352  1  0.55219144  0.14085021  0.60825734  1
  C  C353  1  0.59008727  0.14922119  0.60224092  1
  C  C354  1  0.61834152  0.16699390  0.61270431  1
  C  C355  1  0.61085211  0.17430653  0.62992855  1
  C  C356  1  0.57335882  0.16742115  0.63604195  1
  C  C357  1  0.54421785  0.15236547  0.62523119  1
  C  C358  1  0.04169603  0.10211612  0.94587011  1
  C  C359  1  0.04835067  0.05866633  0.94635123  1
  C  C360  1  0.02964953  0.03661188  0.95934070  1
  C  C361  1  0.00875570  0.05735614  0.97142902  1
  C  C362  1  0.01281407  0.10090228  0.97355619  1
  C  C363  1  0.02503745  0.12301920  0.95931481  1
  C  C364  1  0.07018777  0.03680929  0.93442844  1
  C  C365  1  0.08902445  0.01493230  0.92481870  1
  C  C366  1  0.10874488  0.98943616  0.91469846  1
  C  C367  1  0.12663051  0.96572229  0.90546293  1
  C  C368  1  0.14584176  0.93751359  0.89494484  1
  C  C369  1  0.15668671  0.89765044  0.90077214  1
  C  C370  1  0.17533499  0.86980141  0.89040134  1
  C  C371  1  0.18116996  0.87913925  0.87332026  1
  C  C372  1  0.17135135  0.91861181  0.86735816  1
  C  C373  1  0.15533702  0.94764550  0.87811147  1
  C  C374  1  0.06833362  0.06507192  0.54139490  1
  C  C375  1  0.06512639  0.04714862  0.55760944  1
  C  C376  1  0.08785793  0.01157830  0.56104069  1
  C  C377  1  0.11248886  0.99504532  0.54910636  1
  C  C378  1  0.11361577  1.01198064  0.53284491  1
  C  C379  1  0.09125191  0.04737552  0.52930562  1
  C  C380  1  0.04022396  0.06525674  0.56935942  1
  C  C381  1  0.01783770  0.08260309  0.57897632  1
  C  C382  1  0.99328326  0.10198946  0.58921984  1
  C  C383  1  0.97073009  0.11979112  0.59862576  1
  C  C384  1  0.94422860  0.13904485  0.60934205  1
  C  C385  1  0.93718999  0.12313907  0.62564051  1
  C  C386  1  0.90973722  0.14043322  0.63596817  1
  C  C387  1  0.88607537  0.17318821  0.63026794  1
  C  C388  1  0.89575321  0.19207230  0.61487603  1
  C  C389  1  0.92402817  0.17550457  0.60473100  1
  C  C390  1  0.01464178  0.07825361  0.05603294  1
  C  C391  1  0.05409782  0.06584806  0.05461071  1
  C  C392  1  0.08057407  0.07953071  0.04196146  1
  C  C393  1  0.06969400  0.08768229  0.02564304  1
  C  C394  1  0.00959527  0.12608255  0.03175621  1
  C  C395  1  0.99864197  0.11170776  0.04809522  1
  C  C396  1  0.06975546  0.03879211  0.06660998  1
  C  C397  1  0.08653775  0.01550408  0.07641538  1
  C  C398  1  0.10596349  0.99070015  0.08690686  1
  C  C399  1  0.12382946  0.96793886  0.09655191  1
  C  C400  1  0.14344987  0.94168527  0.10771255  1
  C  C401  1  0.18174714  0.92760449  0.10487643  1
  C  C402  1  0.19896382  0.89872663  0.11527218  1
  C  C403  1  0.17899190  0.88273792  0.12924614  1
  C  C404  1  0.14418039  0.90251813  0.13382992  1
  C  C405  1  0.12589880  0.92934860  0.12292803  1
  C  C406  1  0.40145279  0.07164730  0.45455820  1
  C  C407  1  0.42916114  0.04733231  0.44585255  1
  C  C408  1  0.42896348  1.00398433  0.44882467  1
  C  C409  1  0.40512565  0.98664498  0.46079807  1
  C  C410  1  0.37870812  1.01152399  0.46950276  1
  C  C411  1  0.37612273  0.05392029  0.46564034  1
  C  C412  1  0.45481878  0.06646120  0.43476124  1
  C  C413  1  0.47705548  0.08428780  0.42529428  1
  C  C414  1  0.50127888  0.10372628  0.41497806  1
  C  C415  1  0.52381057  0.12083238  0.40542308  1
  C  C416  1  0.55089274  0.13777548  0.39437531  1
  C  C417  1  0.57487222  0.11108242  0.38473613  1
  C  C418  1  0.60319648  0.12645639  0.37443091  1
  C  C419  1  0.60864883  0.16966999  0.37248179  1
  C  C420  1  0.58389164  0.19653314  0.38143587  1
  C  C421  1  0.55604407  0.18107745  0.39210954  1
  N  N422  1  -0.00010051  0.22489925  0.01124524  1
  N  N423  1  -0.00242592  0.24319973  -0.00272487  1
  N  N424  1  0.23554418  0.97631696  0.50415150  1
  N  N425  1  0.25453331  0.00638236  0.49871296  1
  N  N426  1  0.24773081  0.44128146  0.78594782  1
  N  N427  1  0.25514047  0.47505413  0.78551547  1
  N  N428  1  0.03187762  0.24299572  0.28807836  1
  N  N429  1  1.00186588  0.24977021  0.28336057  1
  N  N430  1  0.26314354  0.44005234  0.21642735  1
  N  N431  1  0.26169026  0.47462786  0.21644826  1
  N  N432  1  0.46203557  0.24308014  0.71495920  1
  N  N433  1  0.49259782  0.25015377  0.71914763  1
  N  N434  1  0.26387642  0.04037820  0.78620786  1
  N  N435  1  0.26162211  1.00580467  0.78610642  1
  N  N436  1  0.03547254  0.25378864  0.71456953  1
  N  N437  1  1.00452080  0.25082622  0.71829503  1
  N  N438  1  0.24803473  0.03896424  0.21559478  1
  N  N439  1  0.25440045  1.00511089  0.21611700  1
  N  N440  1  0.45903147  0.25264872  0.28673410  1
  N  N441  1  0.49022584  0.25156602  0.28324981  1
  O  O442  1  0.17770010  0.32831551  0.79068546  1
  O  O443  1  0.24440993  0.29783300  0.76101637  1
  O  O444  1  0.29348956  0.24537160  0.72070136  1
  O  O445  1  0.38324429  0.25779966  0.73846513  1
  O  O446  1  0.31363408  0.14651325  0.79277574  1
  O  O447  1  0.25089007  0.18254336  0.76152208  1
  O  O448  1  0.20233034  0.22991726  0.71974196  1
  O  O449  1  0.11291109  0.22111432  0.73740590  1
  O  O450  1  0.17610043  0.15268762  0.20924640  1
  O  O451  1  0.24154078  0.18218003  0.24057709  1
  O  O452  1  0.29275922  0.23268658  0.28198342  1
  O  O453  1  0.38070625  0.22111064  0.26291915  1
  O  O454  1  0.31235472  0.33350819  0.21106851  1
  O  O455  1  0.24864983  0.29789343  0.24150398  1
  O  O456  1  0.20160863  0.24633047  0.28203056  1
  O  O457  1  0.11149283  0.25875609  0.26545457  1
