# generated using pymatgen
data_SiH226(C169O6)2
_symmetry_space_group_name_H-M   'P 1'
_cell_length_a   48.02579932
_cell_length_b   45.86962896
_cell_length_c   60.87969059
_cell_angle_alpha   89.16061188
_cell_angle_beta   91.27805618
_cell_angle_gamma   89.77366637
_symmetry_Int_Tables_number   1
_chemical_formula_structural   SiH226(C169O6)2
_chemical_formula_sum   'Si1 H226 C338 O12'
_cell_volume   134064.44926104
_cell_formula_units_Z   1
loop_
 _symmetry_equiv_pos_site_id
 _symmetry_equiv_pos_as_xyz
  1  'x, y, z'
loop_
 _atom_site_type_symbol
 _atom_site_label
 _atom_site_symmetry_multiplicity
 _atom_site_fract_x
 _atom_site_fract_y
 _atom_site_fract_z
 _atom_site_occupancy
  Si  Si0  1  0.53199637  0.53176272  0.51429204  1
  H  H1  1  0.01824937  0.97995113  0.01182908  1
  H  H2  1  -0.00143871  0.96812064  0.98851217  1
  H  H3  1  0.03473703  0.96265074  0.98958590  1
  H  H4  1  0.03694564  0.10625549  0.98271577  1
  H  H5  1  0.01489872  0.09335402  0.00377895  1
  H  H6  1  0.05112172  0.08728525  0.00602825  1
  H  H7  1  0.03210825  0.01146319  0.91662870  1
  H  H8  1  0.02210806  0.04902677  0.91454373  1
  H  H9  1  0.05703185  0.03974430  0.92052113  1
  H  H10  1  0.99896944  0.02825370  0.09518434  1
  H  H11  1  0.03070723  0.00795168  0.09524755  1
  H  H12  1  0.03178465  0.04619140  0.09667542  1
  H  H13  1  0.95356159  0.04009076  0.02516993  1
  H  H14  1  0.97178756  0.05913499  0.00435026  1
  H  H15  1  0.96853575  0.02088786  0.00316111  1
  H  H16  1  0.09262475  0.02312393  0.03329800  1
  H  H17  1  0.07697520  0.00564961  0.01041167  1
  H  H18  1  0.08139623  0.04384756  0.00988718  1
  H  H19  1  0.63434506  0.54521249  0.55647380  1
  H  H20  1  0.52905644  0.63440819  0.46252621  1
  H  H21  1  0.50345469  0.54793605  0.47832955  1
  H  H22  1  0.52749658  0.43479593  0.45794917  1
  H  H23  1  0.42920813  0.51972650  0.54345715  1
  H  H24  1  0.58095778  0.58123456  0.50540868  1
  H  H25  1  0.48230248  0.47980916  0.50762074  1
  H  H26  1  0.55737613  0.51662425  0.48064272  1
  H  H27  1  0.51820486  0.51040568  0.54932370  1
  H  H28  1  0.48131044  0.58728026  0.52001850  1
  H  H29  1  0.58879858  0.48439112  0.51600191  1
  H  H30  1  0.54661400  0.55562626  0.54748137  1
  H  H31  1  0.88504518  0.42932910  0.67457388  1
  H  H32  1  0.87918585  0.36617197  0.65791247  1
  H  H33  1  0.91668174  0.33361403  0.66403699  1
  H  H34  1  0.96428536  0.32173730  0.67632879  1
  H  H35  1  0.97389496  0.40878924  0.70108863  1
  H  H36  1  0.92634824  0.42116588  0.68822546  1
  H  H37  1  0.01346516  0.32490100  0.67858369  1
  H  H38  1  -0.00379352  0.31463538  0.70284481  1
  H  H39  1  0.01513104  0.30988443  0.75921151  1
  H  H40  1  0.00661341  0.29109715  0.73495669  1
  H  H41  1  -0.00391621  0.32789930  0.73783074  1
  H  H42  1  0.04286546  0.34910190  0.66624526  1
  H  H43  1  0.07062253  0.32378855  0.66436230  1
  H  H44  1  0.07746481  0.36121115  0.66841064  1
  H  H45  1  0.11685490  0.33099164  0.76182338  1
  H  H46  1  0.12581572  0.35809147  0.74218793  1
  H  H47  1  0.13343028  0.32102477  0.73758237  1
  H  H48  1  0.13292687  0.33675663  0.70492890  1
  H  H49  1  0.11339449  0.34840207  0.68125340  1
  H  H50  1  0.15568346  0.35418814  0.67966484  1
  H  H51  1  0.19925448  0.37568380  0.66884737  1
  H  H52  1  0.18166280  0.45270051  0.70656790  1
  H  H53  1  0.13531487  0.43204478  0.71539483  1
  H  H54  1  0.22908522  0.44603816  0.68820795  1
  H  H55  1  0.23753502  0.38170886  0.67415968  1
  H  H56  1  0.08095935  0.33318106  0.77603457  1
  H  H57  1  0.04659314  0.31967909  0.77559479  1
  H  H58  1  0.06696736  0.31607684  0.80906182  1
  H  H59  1  0.05635315  0.29155236  0.84392529  1
  H  H60  1  0.07489874  0.20818677  0.81495691  1
  H  H61  1  0.08393908  0.23321521  0.77982571  1
  H  H62  1  0.05155644  0.24725184  0.86669130  1
  H  H63  1  0.06519480  0.18913505  0.84359849  1
  H  H64  1  0.66108891  0.87128122  0.33587431  1
  H  H65  1  0.70494111  0.88181887  0.37283135  1
  H  H66  1  0.73621232  0.92060701  0.36859625  1
  H  H67  1  0.75347755  0.96409324  0.34948842  1
  H  H68  1  0.68833943  0.95573080  0.30015340  1
  H  H69  1  0.67053389  0.91227112  0.31941012  1
  H  H70  1  0.77051442  0.99406957  0.32437320  1
  H  H71  1  0.74427115  0.01199502  0.33910738  1
  H  H72  1  0.70363129  0.07639722  0.32982863  1
  H  H73  1  0.73049430  0.05965230  0.34566247  1
  H  H74  1  0.70558300  0.03799307  0.33161344  1
  H  H75  1  0.78460749  0.98666437  0.29557711  1
  H  H76  1  0.81298015  0.01118074  0.29446218  1
  H  H77  1  0.79484447  0.00111387  0.27012983  1
  H  H78  1  0.74496863  0.12358915  0.26516897  1
  H  H79  1  0.75333944  0.09800987  0.24461895  1
  H  H80  1  0.77985857  0.11415082  0.26082997  1
  H  H81  1  0.80483887  0.07729199  0.25490686  1
  H  H82  1  0.81070805  0.03941257  0.25941724  1
  H  H83  1  0.83433706  0.05531195  0.23336005  1
  H  H84  1  0.85901785  0.05586923  0.19897691  1
  H  H85  1  0.78095149  0.04454115  0.16307304  1
  H  H86  1  0.75619127  0.04325347  0.19836851  1
  H  H87  1  0.82445646  0.04676079  0.14242312  1
  H  H88  1  0.87802182  0.05910563  0.17021650  1
  H  H89  1  0.70877713  0.11159488  0.27968815  1
  H  H90  1  0.70030417  0.10300956  0.30711455  1
  H  H91  1  0.68106509  0.14268720  0.29211310  1
  H  H92  1  0.65382651  0.18299733  0.30732291  1
  H  H93  1  0.72772921  0.21267352  0.34252155  1
  H  H94  1  0.75397020  0.17097831  0.32866728  1
  H  H95  1  0.65109942  0.22746068  0.32786545  1
  H  H96  1  0.70331667  0.23931396  0.35734239  1
  H  H97  1  0.83343479  0.70337273  0.66293968  1
  H  H98  1  0.83234505  0.65079289  0.69515919  1
  H  H99  1  0.87326850  0.64146702  0.71684405  1
  H  H100  1  0.92195179  0.65204010  0.72726165  1
  H  H101  1  0.92421610  0.71963627  0.67716028  1
  H  H102  1  0.87625981  0.70727578  0.66524606  1
  H  H103  1  0.96800604  0.65924748  0.72735461  1
  H  H104  1  0.94952838  0.68615825  0.74173294  1
  H  H105  1  0.96393887  0.75750975  0.75945372  1
  H  H106  1  0.95611569  0.72076171  0.76509061  1
  H  H107  1  0.94641919  0.73654025  0.73934565  1
  H  H108  1  0.99470079  0.65516082  0.70348884  1
  H  H109  1  0.02186649  0.64270454  0.72136803  1
  H  H110  1  0.02943907  0.66050304  0.69616312  1
  H  H111  1  0.06499566  0.76979690  0.74541038  1
  H  H112  1  0.07445317  0.75483673  0.71979495  1
  H  H113  1  0.08334376  0.73650321  0.74466881  1
  H  H114  1  0.08416513  0.69574069  0.72698402  1
  H  H115  1  0.06515420  0.67237383  0.70918238  1
  H  H116  1  0.11030302  0.66731697  0.70545384  1
  H  H117  1  0.15522208  0.65943473  0.68887453  1
  H  H118  1  0.14134066  0.73483086  0.64653885  1
  H  H119  1  0.09585732  0.74279248  0.66370794  1
  H  H120  1  0.18379024  0.70803499  0.64253817  1
  H  H121  1  0.19245805  0.65310206  0.67212407  1
  H  H122  1  0.02787426  0.78878469  0.74601103  1
  H  H123  1  0.99318665  0.78299330  0.75396352  1
  H  H124  1  0.01014526  0.82627937  0.76563835  1
  H  H125  1  0.00102042  0.86529685  0.79164287  1
  H  H126  1  0.01980170  0.80601855  0.84592715  1
  H  H127  1  0.02798662  0.76675072  0.81961397  1
  H  H128  1  1.00123946  0.88461257  0.82823853  1
  H  H129  1  0.00968652  0.84052011  0.86690425  1
  H  H130  1  0.38350128  0.82371295  0.32281117  1
  H  H131  1  0.33426611  0.81990214  0.35452916  1
  H  H132  1  0.30083582  0.85959676  0.35028411  1
  H  H133  1  0.29014377  0.91078301  0.34053962  1
  H  H134  1  0.37241870  0.92073764  0.31399522  1
  H  H135  1  0.38435820  0.87040081  0.32642626  1
  H  H136  1  0.29242102  0.96053327  0.33883944  1
  H  H137  1  0.28333892  0.94216399  0.31433677  1
  H  H138  1  0.27966720  0.95964769  0.25834140  1
  H  H139  1  0.26239142  0.95098278  0.28272681  1
  H  H140  1  0.29758766  0.94045960  0.27969414  1
  H  H141  1  0.32064618  0.98915721  0.34992364  1
  H  H142  1  0.29584875  0.01731202  0.35309668  1
  H  H143  1  0.33132921  0.02571288  0.34872931  1
  H  H144  1  0.30246738  0.06548949  0.25477950  1
  H  H145  1  0.32848819  0.07562760  0.27438252  1
  H  H146  1  0.29306720  0.08362332  0.27879177  1
  H  H147  1  0.30695317  0.08404332  0.31274586  1
  H  H148  1  0.32017190  0.06390734  0.33587566  1
  H  H149  1  0.32371157  0.11154176  0.33768615  1
  H  H150  1  0.34236183  0.15868356  0.34761757  1
  H  H151  1  0.41830994  0.13909345  0.31380001  1
  H  H152  1  0.39848678  0.09159179  0.30289334  1
  H  H153  1  0.41495500  0.18561599  0.33200968  1
  H  H154  1  0.35997310  0.19681517  0.35635613  1
  H  H155  1  0.30294620  0.02782921  0.24071869  1
  H  H156  1  0.29091193  0.99153777  0.24217186  1
  H  H157  1  0.28658187  0.00972340  0.20948464  1
  H  H158  1  0.26280536  -0.00182904  0.17454049  1
  H  H159  1  0.18350163  0.01931336  0.20316869  1
  H  H160  1  0.20745379  0.02734299  0.23878674  1
  H  H161  1  0.22109707  0.99962688  0.15070812  1
  H  H162  1  0.16536781  0.00478167  0.17513402  1
  H  H163  1  0.69930296  0.51687662  0.57125011  1
  H  H164  1  0.67338305  0.42933623  0.55762244  1
  H  H165  1  0.63156955  0.44824778  0.53808607  1
  H  H166  1  0.66761233  0.53300755  0.54064766  1
  H  H167  1  0.79618068  0.38846325  0.62355884  1
  H  H168  1  0.83825515  0.37429223  0.64429373  1
  H  H169  1  0.85014395  0.46372948  0.66315986  1
  H  H170  1  0.80779156  0.47772880  0.64231974  1
  H  H171  1  0.60362512  0.39941031  0.46453436  1
  H  H172  1  0.58374156  0.45113461  0.40613670  1
  H  H173  1  0.56719835  0.49164821  0.42963326  1
  H  H174  1  0.58795059  0.44037069  0.48788032  1
  H  H175  1  0.63338659  0.33098097  0.35019839  1
  H  H176  1  0.65517112  0.29062512  0.32977241  1
  H  H177  1  0.67297466  0.24519763  0.39135252  1
  H  H178  1  0.64819312  0.28411515  0.41150911  1
  H  H179  1  0.39114945  0.64099412  0.54582598  1
  H  H180  1  0.37837256  0.56339810  0.58456553  1
  H  H181  1  0.41986065  0.54227194  0.57010585  1
  H  H182  1  0.43115443  0.61816950  0.52843216  1
  H  H183  1  0.26994118  0.60637528  0.64367941  1
  H  H184  1  0.22846421  0.62049224  0.66372658  1
  H  H185  1  0.22657475  0.70327637  0.62928016  1
  H  H186  1  0.26798846  0.68909077  0.60942718  1
  H  H187  1  0.61257698  0.69599829  0.48308140  1
  H  H188  1  0.58107596  0.66387006  0.42137566  1
  H  H189  1  0.56634549  0.61865707  0.44011718  1
  H  H190  1  0.59507682  0.65244184  0.50216997  1
  H  H191  1  0.62086422  0.78318539  0.36081460  1
  H  H192  1  0.63833882  0.82414286  0.33872113  1
  H  H193  1  0.67907839  0.85885965  0.39651503  1
  H  H194  1  0.66221834  0.81753131  0.41826532  1
  H  H195  1  0.45383335  0.36496043  0.48110137  1
  H  H196  1  0.46547842  0.41099673  0.42001827  1
  H  H197  1  0.48407461  0.45290344  0.44042037  1
  H  H198  1  0.47228999  0.40663724  0.50152848  1
  H  H199  1  0.42156086  0.29427892  0.35593794  1
  H  H200  1  0.40559342  0.25249588  0.33438831  1
  H  H201  1  0.38434510  0.20730937  0.39419219  1
  H  H202  1  0.40278999  0.24812656  0.41581721  1
  H  H203  1  0.43259325  0.50892899  0.61124527  1
  H  H204  1  0.41211238  0.44393146  0.56288186  1
  H  H205  1  0.45740556  0.45294281  0.54467611  1
  H  H206  1  0.47862286  0.51646699  0.59396576  1
  H  H207  1  0.30236094  0.39997220  0.61755956  1
  H  H208  1  0.26301422  0.38074354  0.63917040  1
  H  H209  1  0.27592344  0.44915823  0.68676697  1
  H  H210  1  0.31539089  0.46781438  0.66521940  1
  H  H211  1  0.46759202  0.67373642  0.45434095  1
  H  H212  1  0.45409205  0.59960910  0.41193703  1
  H  H213  1  0.47538343  0.56656969  0.44083296  1
  H  H214  1  0.48304403  0.63932396  0.48457809  1
  H  H215  1  0.39111122  0.71850162  0.35226977  1
  H  H216  1  0.37009845  0.75767665  0.32886952  1
  H  H217  1  0.39859961  0.82167771  0.37579456  1
  H  H218  1  0.42139230  0.78238985  0.39830615  1
  H  H219  1  0.64364742  0.55901806  0.61018014  1
  H  H220  1  0.63663332  0.63410418  0.56665084  1
  H  H221  1  0.59265156  0.61421482  0.55043950  1
  H  H222  1  0.59671437  0.54259114  0.59713688  1
  H  H223  1  0.75154894  0.68997735  0.62098928  1
  H  H224  1  0.79298853  0.71023757  0.64029668  1
  H  H225  1  0.80466074  0.62791338  0.67534492  1
  H  H226  1  0.76231924  0.60890703  0.65715721  1
  C  C227  1  0.01829535  0.97838242  0.99386531  1
  C  C228  1  0.02380074  0.00687394  0.95913375  1
  C  C229  1  0.02242383  0.00698221  0.98250389  1
  C  C230  1  0.02556266  0.03371217  0.99364867  1
  C  C231  1  0.03014897  0.06031282  0.98200307  1
  C  C232  1  0.03201394  0.05989659  0.95867411  1
  C  C233  1  0.02991767  0.03300565  0.94740961  1
  C  C234  1  0.03339697  0.08803096  0.99419136  1
  C  C235  1  0.03537385  0.03309670  0.92360686  1
  C  C236  1  0.04663131  0.02730856  0.05437609  1
  C  C237  1  0.02066524  0.03015900  0.06481826  1
  C  C238  1  0.99620528  0.03452174  0.05158806  1
  C  C239  1  -0.00241234  0.03560730  0.02824049  1
  C  C240  1  0.02387487  0.03309799  0.01820274  1
  C  C241  1  0.04856098  0.02879940  0.03110935  1
  C  C242  1  0.02026709  0.02803565  0.08907955  1
  C  C243  1  0.97171007  0.03909719  0.01457732  1
  C  C244  1  0.07606019  0.02526201  0.02064147  1
  C  C245  1  0.59098717  0.55173877  0.55345103  1
  C  C246  1  0.51195460  0.59338368  0.47225813  1
  C  C247  1  0.51830839  0.56554668  0.48028291  1
  C  C248  1  0.54091474  0.56305477  0.49493440  1
  C  C249  1  0.56230717  0.58453317  0.49518403  1
  C  C250  1  0.55928646  0.60915432  0.48109358  1
  C  C251  1  0.53294715  0.61420142  0.47170596  1
  C  C252  1  0.50068469  0.45571470  0.48082761  1
  C  C253  1  0.49962378  0.47818442  0.49648724  1
  C  C254  1  0.52088945  0.50003571  0.49684127  1
  C  C255  1  0.54255965  0.49891202  0.48213849  1
  C  C256  1  0.54634554  0.47335989  0.47065601  1
  C  C257  1  0.52504240  0.45306002  0.46896104  1
  C  C258  1  0.45286175  0.55924003  0.53852528  1
  C  C259  1  0.44981436  0.52967782  0.54380539  1
  C  C260  1  0.47314575  0.51272588  0.54972600  1
  C  C261  1  0.49958822  0.52265628  0.54435954  1
  C  C262  1  0.50092186  0.54575156  0.52944980  1
  C  C263  1  0.47845398  0.56647983  0.52847487  1
  C  C264  1  0.61548081  0.53685369  0.54880023  1
  C  C265  1  0.61522326  0.51028049  0.53793218  1
  C  C266  1  0.58981817  0.50304429  0.52682830  1
  C  C267  1  0.56564537  0.52129407  0.52883647  1
  C  C268  1  0.56559125  0.54374007  0.54390953  1
  C  C269  1  0.87591332  0.41123025  0.66553119  1
  C  C270  1  0.88936494  0.38492437  0.66535816  1
  C  C271  1  0.91733782  0.37860443  0.67430576  1
  C  C272  1  0.92908261  0.35045297  0.67200342  1
  C  C273  1  0.95602868  0.34348494  0.67930745  1
  C  C274  1  0.97233644  0.36447146  0.68985207  1
  C  C275  1  0.96122596  0.39237608  0.69283426  1
  C  C276  1  0.93430232  0.39930303  0.68533007  1
  C  C277  1  0.01110367  0.33033240  0.69601955  1
  C  C278  1  0.03877378  0.32978113  0.70836084  1
  C  C279  1  0.06329667  0.33780410  0.69743080  1
  C  C280  1  0.08847828  0.33901100  0.70978634  1
  C  C281  1  0.08981409  0.33266983  0.73259089  1
  C  C282  1  0.06521700  0.32436835  0.74326331  1
  C  C283  1  0.03981463  0.32233161  0.73111795  1
  C  C284  1  0.01324664  0.31241857  0.74135310  1
  C  C285  1  0.06350125  0.34334090  0.67304270  1
  C  C286  1  0.11761880  0.33581777  0.74419987  1
  C  C287  1  0.11451159  0.34945819  0.69926694  1
  C  C288  1  0.14334376  0.39133772  0.69914589  1
  C  C289  1  0.16135155  0.37547408  0.68607353  1
  C  C290  1  0.18678027  0.38717332  0.68071345  1
  C  C291  1  0.19546531  0.41425996  0.68925618  1
  C  C292  1  0.17608232  0.43087385  0.70119696  1
  C  C293  1  0.15018171  0.41949769  0.70604484  1
  C  C294  1  0.22319372  0.42358641  0.68463211  1
  C  C295  1  0.24108566  0.40518696  0.67443861  1
  C  C296  1  0.06680184  0.31784162  0.76763028  1
  C  C297  1  0.07371484  0.27590121  0.79164611  1
  C  C298  1  0.06728850  0.29230410  0.81006534  1
  C  C299  1  0.06213069  0.27834874  0.82997748  1
  C  C300  1  0.06394003  0.24750472  0.83262665  1
  C  C301  1  0.07241346  0.23179530  0.81389268  1
  C  C302  1  0.07749293  0.24578025  0.79393437  1
  C  C303  1  0.05772920  0.23330792  0.85327611  1
  C  C304  1  0.05895165  0.20318637  0.85713561  1
  C  C305  1  0.67122982  0.86879351  0.35200761  1
  C  C306  1  0.69240735  0.88696484  0.35811396  1
  C  C307  1  0.70183222  0.91260017  0.34591342  1
  C  C308  1  0.72529236  0.92829297  0.35371610  1
  C  C309  1  0.73500569  0.95311603  0.34300207  1
  C  C310  1  0.72135741  0.96339789  0.32390286  1
  C  C311  1  0.69854996  0.94802345  0.31535055  1
  C  C312  1  0.68874093  0.92330459  0.32624741  1
  C  C313  1  0.75086672  0.00638072  0.32246507  1
  C  C314  1  0.75398802  0.03280192  0.30772766  1
  C  C315  1  0.77281940  0.03200621  0.29022039  1
  C  C316  1  0.77451091  0.05627720  0.27573395  1
  C  C317  1  0.75652634  0.08048989  0.27779007  1
  C  C318  1  0.73708466  0.08031333  0.29485515  1
  C  C319  1  0.73649414  0.05737719  0.31057574  1
  C  C320  1  0.71813304  0.05793889  0.33023649  1
  C  C321  1  0.79208436  0.00651624  0.28746795  1
  C  C322  1  0.75859926  0.10521591  0.26140213  1
  C  C323  1  0.79438600  0.05608605  0.25705851  1
  C  C324  1  0.79350352  0.04984754  0.21800606  1
  C  C325  1  0.82241209  0.05310594  0.21802802  1
  C  C326  1  0.83646669  0.05323835  0.19835454  1
  C  C327  1  0.82221963  0.05000412  0.17783836  1
  C  C328  1  0.79274645  0.04672787  0.17845868  1
  C  C329  1  0.77871109  0.04628491  0.19815863  1
  C  C330  1  0.83681379  0.04961955  0.15747919  1
  C  C331  1  0.86559757  0.05292443  0.15566367  1
  C  C332  1  0.71786375  0.10603020  0.29605162  1
  C  C333  1  0.71884270  0.15371330  0.31049269  1
  C  C334  1  0.69092348  0.15739739  0.30379859  1
  C  C335  1  0.67587322  0.18060986  0.31170930  1
  C  C336  1  0.68845921  0.20113039  0.32583932  1
  C  C337  1  0.71702630  0.19730055  0.33182276  1
  C  C338  1  0.73208332  0.17397830  0.32396917  1
  C  C339  1  0.67262835  0.22529973  0.33385419  1
  C  C340  1  0.68293987  0.24338700  0.34947257  1
  C  C341  1  0.82713733  0.68190030  0.66886176  1
  C  C342  1  0.84208316  0.66752327  0.68503648  1
  C  C343  1  0.87049019  0.67428025  0.69093227  1
  C  C344  1  0.88432608  0.65875838  0.70823856  1
  C  C345  1  0.91162696  0.66490093  0.71424146  1
  C  C346  1  0.92572135  0.68707230  0.70307434  1
  C  C347  1  0.91284568  0.70243886  0.68561544  1
  C  C348  1  0.88570412  0.69584731  0.67935001  1
  C  C349  1  0.96465603  0.68293371  0.72863712  1
  C  C350  1  0.99135955  0.69930723  0.73217711  1
  C  C351  1  0.01562547  0.68934036  0.72188617  1
  C  C352  1  0.04017362  0.70605176  0.72378034  1
  C  C353  1  0.03987864  0.73303089  0.73495537  1
  C  C354  1  0.01486363  0.74362556  0.74388089  1
  C  C355  1  0.99044895  0.72653369  0.74286081  1
  C  C356  1  0.96308425  0.73590188  0.75211490  1
  C  C357  1  0.01539223  0.66071805  0.71013582  1
  C  C358  1  0.06679986  0.74950698  0.73629777  1
  C  C359  1  0.06711566  0.69508240  0.71452367  1
  C  C360  1  0.10038747  0.70635357  0.68628542  1
  C  C361  1  0.11709259  0.68261873  0.69279586  1
  C  C362  1  0.14264074  0.67787367  0.68294213  1
  C  C363  1  0.15245056  0.69627374  0.66587161  1
  C  C364  1  0.13476859  0.71992047  0.65950721  1
  C  C365  1  0.10919237  0.72470779  0.66927123  1
  C  C366  1  0.17899263  0.69159689  0.65500360  1
  C  C367  1  0.19691824  0.66882871  0.65906877  1
  C  C368  1  0.01415301  0.77324192  0.75446791  1
  C  C369  1  0.01852770  0.79348353  0.79100698  1
  C  C370  1  0.01148063  0.82148694  0.78323812  1
  C  C371  1  0.00701052  0.84376916  0.79799004  1
  C  C372  1  0.01010710  0.83948815  0.82108152  1
  C  C373  1  0.01753406  0.81082559  0.82839517  1
  C  C374  1  0.02197197  0.78846196  0.81362574  1
  C  C375  1  0.00632964  0.86349370  0.83580245  1
  C  C376  1  0.00846629  0.86199221  0.85872090  1
  C  C377  1  0.37220971  0.81670137  0.33736724  1
  C  C378  1  0.34922806  0.83101686  0.34408548  1
  C  C379  1  0.34271104  0.86062272  0.33781849  1
  C  C380  1  0.31644752  0.87296751  0.34224204  1
  C  C381  1  0.31034716  0.90162142  0.33651153  1
  C  C382  1  0.33059388  0.91850906  0.32614017  1
  C  C383  1  0.35698972  0.90709971  0.32201106  1
  C  C384  1  0.36325958  0.87863292  0.32829123  1
  C  C385  1  0.29782065  0.95818929  0.32145588  1
  C  C386  1  0.29786137  0.98667934  0.30906298  1
  C  C387  1  0.30821542  0.01178729  0.31962221  1
  C  C388  1  0.31107146  0.03779919  0.30719016  1
  C  C389  1  0.30432688  0.03833175  0.28440060  1
  C  C390  1  0.29574683  0.01244253  0.27393278  1
  C  C391  1  0.29195116  0.98644336  0.28618852  1
  C  C392  1  0.28250012  0.95820855  0.27619803  1
  C  C393  1  0.31442711  0.01093569  0.34391401  1
  C  C394  1  0.30724206  0.06695432  0.27238154  1
  C  C395  1  0.32057811  0.06560581  0.31785103  1
  C  C396  1  0.35938435  0.09880248  0.31876989  1
  C  C397  1  0.34420085  0.11763174  0.33181684  1
  C  C398  1  0.35524976  0.14443990  0.33786170  1
  C  C399  1  0.38219566  0.15334582  0.33157786  1
  C  C400  1  0.39734433  0.13338528  0.31879424  1
  C  C401  1  0.38625915  0.10664094  0.31254572  1
  C  C402  1  0.39418205  0.18122572  0.33813485  1
  C  C403  1  0.38150777  0.20060845  0.35144439  1
  C  C404  1  0.28904571  0.01305435  0.24971394  1
  C  C405  1  0.24825104  0.01798903  0.22654983  1
  C  C406  1  0.26390138  0.01047334  0.20833072  1
  C  C407  1  0.25053087  0.00501138  0.18842711  1
  C  C408  1  0.22121548  0.00822386  0.18563064  1
  C  C409  1  0.20601806  0.01645258  0.20442180  1
  C  C410  1  0.21936556  0.02120360  0.22450619  1
  C  C411  1  0.20790085  0.00420598  0.16460236  1
  C  C412  1  0.17912111  0.00562432  0.16095736  1
  C  C413  1  0.68583913  0.50143123  0.56261908  1
  C  C414  1  0.68932094  0.47133036  0.56746213  1
  C  C415  1  0.66992064  0.45282731  0.55646909  1
  C  C416  1  0.64635568  0.46369012  0.54509141  1
  C  C417  1  0.64206311  0.49393762  0.54242808  1
  C  C418  1  0.66546765  0.51132405  0.54789034  1
  C  C419  1  0.71174134  0.46183839  0.58127942  1
  C  C420  1  0.73190949  0.45534071  0.59324484  1
  C  C421  1  0.75423590  0.44865249  0.60607132  1
  C  C422  1  0.77479496  0.44240611  0.61768807  1
  C  C423  1  0.79871571  0.43453177  0.63030093  1
  C  C424  1  0.80841469  0.40513737  0.63191855  1
  C  C425  1  0.83246795  0.39727298  0.64345335  1
  C  C426  1  0.84937484  0.41819302  0.65438292  1
  C  C427  1  0.83874123  0.44714076  0.65407694  1
  C  C428  1  0.81475710  0.45505085  0.64245564  1
  C  C429  1  0.59596307  0.41990937  0.45735032  1
  C  C430  1  0.59312462  0.42254516  0.43403309  1
  C  C431  1  0.58447834  0.44933563  0.42400056  1
  C  C432  1  0.57484867  0.47123140  0.43695661  1
  C  C433  1  0.57197364  0.46518758  0.45951409  1
  C  C434  1  0.58665407  0.44204663  0.47001173  1
  C  C435  1  0.59992987  0.39853077  0.42172596  1
  C  C436  1  0.60758950  0.37676192  0.41225741  1
  C  C437  1  0.61735874  0.35335032  0.40240882  1
  C  C438  1  0.62707940  0.33233975  0.39314610  1
  C  C439  1  0.63962236  0.30987729  0.38196896  1
  C  C440  1  0.64165420  0.31161518  0.35869430  1
  C  C441  1  0.65404132  0.28954470  0.34759687  1
  C  C442  1  0.66679332  0.26614170  0.35959702  1
  C  C443  1  0.66440503  0.26425786  0.38269904  1
  C  C444  1  0.65053371  0.28531938  0.39374656  1
  C  C445  1  0.39724924  0.61889353  0.55079197  1
  C  C446  1  0.38121264  0.60449559  0.56706440  1
  C  C447  1  0.39008427  0.57570899  0.57237502  1
  C  C448  1  0.41310789  0.56305357  0.56309252  1
  C  C449  1  0.42888525  0.57714804  0.54661511  1
  C  C450  1  0.42017656  0.60583630  0.54097190  1
  C  C451  1  0.35810986  0.61628419  0.57806483  1
  C  C452  1  0.33796247  0.62388101  0.58884624  1
  C  C453  1  0.31592531  0.63121256  0.60091856  1
  C  C454  1  0.29573690  0.63792689  0.61196955  1
  C  C455  1  0.27224913  0.64603741  0.62406091  1
  C  C456  1  0.26022167  0.62754902  0.64024668  1
  C  C457  1  0.23673243  0.63550618  0.65149416  1
  C  C458  1  0.22254909  0.66234582  0.64746256  1
  C  C459  1  0.23527796  0.68155480  0.63218484  1
  C  C460  1  0.25891264  0.67371073  0.62105562  1
  C  C461  1  0.60222013  0.67902496  0.47361943  1
  C  C462  1  0.59825845  0.68375025  0.45062492  1
  C  C463  1  0.58523330  0.66073187  0.43895723  1
  C  C464  1  0.57645595  0.63578530  0.44953166  1
  C  C465  1  0.57876844  0.63209053  0.47257325  1
  C  C466  1  0.59242954  0.65415454  0.48437039  1
  C  C467  1  0.60675219  0.70893208  0.43906429  1
  C  C468  1  0.61415054  0.73001589  0.42795977  1
  C  C469  1  0.62248764  0.75259480  0.41554498  1
  C  C470  1  0.63032603  0.77324733  0.40417501  1
  C  C471  1  0.64011808  0.79673729  0.39145137  1
  C  C472  1  0.63377751  0.79981313  0.36857742  1
  C  C473  1  0.64361375  0.82286875  0.35620497  1
  C  C474  1  0.66099094  0.84470292  0.36541440  1
  C  C475  1  0.66693670  0.84203103  0.38834324  1
  C  C476  1  0.65710420  0.81900967  0.40073020  1
  C  C477  1  0.46030694  0.38444015  0.47211950  1
  C  C478  1  0.45857489  0.38407600  0.44877317  1
  C  C479  1  0.46658899  0.41026986  0.43794773  1
  C  C480  1  0.47718957  0.43363663  0.44940656  1
  C  C481  1  0.48029294  0.43323837  0.47251174  1
  C  C482  1  0.47083471  0.40820101  0.48365470  1
  C  C483  1  0.44924723  0.36006329  0.43642009  1
  C  C484  1  0.44118235  0.33988468  0.42483296  1
  C  C485  1  0.43227882  0.31802945  0.41209891  1
  C  C486  1  0.42405864  0.29797689  0.40045004  1
  C  C487  1  0.41418893  0.27459722  0.38776169  1
  C  C488  1  0.41418209  0.27472873  0.36436229  1
  C  C489  1  0.40507717  0.25113371  0.35225816  1
  C  C490  1  0.39414263  0.22594287  0.36260487  1
  C  C491  1  0.39298424  0.22622721  0.38577162  1
  C  C492  1  0.40323861  0.24908921  0.39791586  1
  C  C493  1  0.43870422  0.49677476  0.59685650  1
  C  C494  1  0.41897690  0.47759086  0.58702922  1
  C  C495  1  0.42688910  0.45997430  0.56908758  1
  C  C496  1  0.45154074  0.46537359  0.55899078  1
  C  C497  1  0.46735870  0.48957280  0.56579970  1
  C  C498  1  0.46365392  0.50113071  0.58698410  1
  C  C499  1  0.39279216  0.47485349  0.59593034  1
  C  C500  1  0.37103136  0.46894079  0.60509841  1
  C  C501  1  0.34974950  0.45866355  0.61629449  1
  C  C502  1  0.33090063  0.44830854  0.62703009  1
  C  C503  1  0.31001254  0.43605987  0.63948065  1
  C  C504  1  0.29596711  0.41044659  0.63261558  1
  C  C505  1  0.27448392  0.39982389  0.64467179  1
  C  C506  1  0.26566857  0.41479661  0.66360110  1
  C  C507  1  0.28108389  0.43916956  0.67127189  1
  C  C508  1  0.30305700  0.44932726  0.65961807  1
  C  C509  1  0.46832594  0.65019108  0.45202142  1
  C  C510  1  0.46127180  0.63847082  0.43096988  1
  C  C511  1  0.46167233  0.60788887  0.42763711  1
  C  C512  1  0.47338237  0.58990073  0.44355341  1
  C  C513  1  0.48565539  0.60312303  0.46214548  1
  C  C514  1  0.47782542  0.63159409  0.46816153  1
  C  C515  1  0.45237000  0.65826573  0.41500584  1
  C  C516  1  0.44411119  0.68073320  0.40586476  1
  C  C517  1  0.43362085  0.70496006  0.39673441  1
  C  C518  1  0.42271205  0.72642104  0.38801995  1
  C  C519  1  0.40893691  0.74827197  0.37608530  1
  C  C520  1  0.39328468  0.74134265  0.35669183  1
  C  C521  1  0.38179378  0.76305852  0.34378146  1
  C  C522  1  0.38422013  0.79245754  0.35026005  1
  C  C523  1  0.39749465  0.79909756  0.37057514  1
  C  C524  1  0.41014773  0.77757094  0.38303787  1
  C  C525  1  0.63146701  0.57145783  0.59795401  1
  C  C526  1  0.64354985  0.59686253  0.58843911  1
  C  C527  1  0.62795229  0.61357208  0.57251341  1
  C  C528  1  0.60377880  0.60242714  0.56364007  1
  C  C529  1  0.59582835  0.57408285  0.57011633  1
  C  C530  1  0.60617254  0.56213863  0.59019012  1
  C  C531  1  0.66967101  0.60557849  0.59597506  1
  C  C532  1  0.69130265  0.61454352  0.60440738  1
  C  C533  1  0.71323497  0.62529371  0.61515543  1
  C  C534  1  0.73298153  0.63557153  0.62536682  1
  C  C535  1  0.75517661  0.64761377  0.63705174  1
  C  C536  1  0.76354989  0.67685032  0.63293623  1
  C  C537  1  0.78643008  0.68795702  0.64361938  1
  C  C538  1  0.80215456  0.67060509  0.65896690  1
  C  C539  1  0.79296216  0.64175507  0.66376761  1
  C  C540  1  0.76978088  0.63082108  0.65339704  1
  C  C541  1  0.97097580  0.03773303  0.06241116  1
  C  C542  1  0.95273677  0.04006850  0.07650838  1
  C  C543  1  0.93334027  0.04255438  0.09151833  1
  C  C544  1  0.91527615  0.04487482  0.10582475  1
  C  C545  1  0.89679644  0.04735969  0.12153682  1
  C  C546  1  0.87987678  0.04973792  0.13656707  1
  C  C547  1  0.03601356  0.08565941  0.94633563  1
  C  C548  1  0.03901755  0.10671863  0.93348194  1
  C  C549  1  0.04222211  0.12914872  0.91971473  1
  C  C550  1  0.04532051  0.14980925  0.90637182  1
  C  C551  1  0.04899234  0.17082796  0.89153478  1
  C  C552  1  0.05296053  0.18912457  0.87658801  1
  C  C553  1  0.07066496  0.02286547  0.06747297  1
  C  C554  1  0.09038723  0.01923161  0.08076464  1
  C  C555  1  0.11141926  0.01536790  0.09499600  1
  C  C556  1  0.13063570  0.01208028  0.10891660  1
  C  C557  1  0.14992442  0.00915233  0.12466134  1
  C  C558  1  0.16640518  0.00684334  0.14062132  1
  C  C559  1  0.01965049  0.98127331  0.94723224  1
  C  C560  1  0.01670767  0.96258606  0.93272317  1
  C  C561  1  0.01364521  0.94275582  0.91721214  1
  C  C562  1  0.01131904  0.92457636  0.90221009  1
  C  C563  1  0.00964771  0.90469155  0.88662424  1
  C  C564  1  0.00833014  0.88584298  0.87216472  1
  O  O565  1  -0.00099410  0.35957106  0.69727847  1
  O  O566  1  0.07727884  0.28822665  0.77138905  1
  O  O567  1  0.11874189  0.37981929  0.70543251  1
  O  O568  1  0.72969514  0.98755220  0.31254811  1
  O  O569  1  0.73415273  0.13063384  0.30390187  1
  O  O570  1  0.77873882  0.04989841  0.23682349  1
  O  O571  1  0.95252644  0.69414874  0.70799124  1
  O  O572  1  0.02315192  0.77059964  0.77747304  1
  O  O573  1  0.07549825  0.71268273  0.69555907  1
  O  O574  1  0.32614164  0.94675582  0.32017860  1
  O  O575  1  0.26036930  0.02302433  0.24650913  1
  O  O576  1  0.34903647  0.07285294  0.31166190  1
