# generated using pymatgen
data_FeH116C124(N4O5)2
_symmetry_space_group_name_H-M   'P 1'
_cell_length_a   68.34755176
_cell_length_b   68.36919379
_cell_length_c   40.20042360
_cell_angle_alpha   90.37175230
_cell_angle_beta   90.20505467
_cell_angle_gamma   98.05617254
_symmetry_Int_Tables_number   1
_chemical_formula_structural   FeH116C124(N4O5)2
_chemical_formula_sum   'Fe2 H232 C248 N16 O20'
_cell_volume   185991.53132369
_cell_formula_units_Z   2
loop_
 _symmetry_equiv_pos_site_id
 _symmetry_equiv_pos_as_xyz
  1  'x, y, z'
loop_
 _atom_site_type_symbol
 _atom_site_label
 _atom_site_symmetry_multiplicity
 _atom_site_fract_x
 _atom_site_fract_y
 _atom_site_fract_z
 _atom_site_occupancy
  Fe  Fe0  1  0.50042636  0.50103587  0.46361366  1
  Fe  Fe1  1  0.50264095  0.50300934  0.53636121  1
  H  H2  1  0.03987956  0.51933353  0.00573998  1
  H  H3  1  0.96730045  0.52133651  1.00335016  1
  H  H4  1  0.52078641  0.04020243  -0.00327885  1
  H  H5  1  0.52028412  0.96758131  1.00479006  1
  H  H6  1  0.09353413  0.51976359  0.29049263  1
  H  H7  1  0.08293711  0.47462689  0.29617192  1
  H  H8  1  0.09471273  0.45892490  0.34403305  1
  H  H9  1  0.11536722  0.45927599  0.39409656  1
  H  H10  1  0.13677631  0.52091813  0.37846746  1
  H  H11  1  0.11635555  0.52050205  0.32773657  1
  H  H12  1  0.14075918  0.46257293  0.42931907  1
  H  H13  1  0.12042708  0.47164762  0.44810095  1
  H  H14  1  0.11519977  0.49906543  0.52279110  1
  H  H15  1  0.11060157  0.47506340  0.50550552  1
  H  H16  1  0.11405924  0.49603745  0.47921484  1
  H  H17  1  0.16851554  0.46996756  0.41908091  1
  H  H18  1  0.17852004  0.45387558  0.44660588  1
  H  H19  1  0.19246688  0.47657725  0.43495226  1
  H  H20  1  0.18099249  0.50866752  0.57489111  1
  H  H21  1  0.19970088  0.51288774  0.54433712  1
  H  H22  1  0.19560743  0.49016033  0.56563048  1
  H  H23  1  0.20905740  0.48086508  0.52027346  1
  H  H24  1  0.20632676  0.47461585  0.47725830  1
  H  H25  1  0.23398589  0.47475948  0.49436785  1
  H  H26  1  0.26965216  0.47828440  0.49853996  1
  H  H27  1  0.27301861  0.54119433  0.48161340  1
  H  H28  1  0.23641966  0.53747138  0.47850195  1
  H  H29  1  0.30370783  0.52719175  0.48936703  1
  H  H30  1  0.29983078  0.48201559  0.50201376  1
  H  H31  1  0.15553709  0.51697474  0.56773901  1
  H  H32  1  0.13092654  0.50873077  0.55576714  1
  H  H33  1  0.13721313  0.52795231  0.60358906  1
  H  H34  1  0.11728714  0.53727330  0.65003837  1
  H  H35  1  0.10829979  0.47676327  0.68322938  1
  H  H36  1  0.12856216  0.46752704  0.63669877  1
  H  H37  1  0.09668067  0.52934388  0.69749895  1
  H  H38  1  0.09398299  0.48700808  0.72522625  1
  H  H39  1  0.48802949  0.09511973  0.29224662  1
  H  H40  1  0.53282743  0.09298715  0.29398585  1
  H  H41  1  0.54891843  0.11103407  0.34390958  1
  H  H42  1  0.54735824  0.13124120  0.39406444  1
  H  H43  1  0.48503320  0.13144358  0.37788884  1
  H  H44  1  0.48624057  0.11153251  0.32775365  1
  H  H45  1  0.54228477  0.15555485  0.43020459  1
  H  H46  1  0.53461923  0.13236108  0.44875678  1
  H  H47  1  0.50783952  0.11782357  0.52275232  1
  H  H48  1  0.53181940  0.12153103  0.50577830  1
  H  H49  1  0.51078334  0.11766384  0.47921888  1
  H  H50  1  0.53270366  0.18039019  0.41950332  1
  H  H51  1  0.54797345  0.19582256  0.44738659  1
  H  H52  1  0.52461163  0.20182585  0.43530391  1
  H  H53  1  0.49385345  0.17962162  0.57463909  1
  H  H54  1  0.48838722  0.19663354  0.54404616  1
  H  H55  1  0.51116762  0.20041491  0.56568242  1
  H  H56  1  0.51936488  0.21688770  0.52044441  1
  H  H57  1  0.52549963  0.21627051  0.47747918  1
  H  H58  1  0.52375595  0.24365243  0.49467241  1
  H  H59  1  0.51819586  0.27771465  0.49870079  1
  H  H60  1  0.45559680  0.25983138  0.48126993  1
  H  H61  1  0.46147798  0.22489130  0.47816286  1
  H  H62  1  0.46797077  0.29534460  0.48913430  1
  H  H63  1  0.51307021  0.30564201  0.50250897  1
  H  H64  1  0.48738405  0.15159317  0.56735665  1
  H  H65  1  0.49708182  0.13008501  0.55530659  1
  H  H66  1  0.47775568  0.12964564  0.60275319  1
  H  H67  1  0.46986489  0.10669103  0.64886399  1
  H  H68  1  0.53013587  0.11894576  0.68383174  1
  H  H69  1  0.53814676  0.14168816  0.63694327  1
  H  H70  1  0.47887879  0.09015953  0.69792933  1
  H  H71  1  0.52310365  0.09445197  0.71654354  1
  H  H72  1  0.90669612  0.51722063  0.71875727  1
  H  H73  1  0.91306294  0.47440401  0.70205265  1
  H  H74  1  0.89585391  0.45856609  0.65520528  1
  H  H75  1  0.87543937  0.45899531  0.60500878  1
  H  H76  1  0.87145006  0.52066215  0.62215924  1
  H  H77  1  0.89219936  0.52036748  0.67234861  1
  H  H78  1  0.85120922  0.46227931  0.56981827  1
  H  H79  1  0.87407876  0.47140788  0.55127896  1
  H  H80  1  0.88696378  0.49872416  0.47718609  1
  H  H81  1  0.88486864  0.47479664  0.49416612  1
  H  H82  1  0.88725286  0.49587906  0.52072802  1
  H  H83  1  0.82558933  0.46987870  0.58043943  1
  H  H84  1  0.81111600  0.45366742  0.55262926  1
  H  H85  1  0.80343365  0.47634462  0.56472970  1
  H  H86  1  0.82380446  0.50834575  0.42548737  1
  H  H87  1  0.80628982  0.51258863  0.45616093  1
  H  H88  1  0.80401902  0.48983241  0.43439602  1
  H  H89  1  0.78796640  0.48053572  0.47960823  1
  H  H90  1  0.78899542  0.47450385  0.52256364  1
  H  H91  1  0.76134395  0.47452359  0.50545806  1
  H  H92  1  0.72665365  0.47798875  0.50127901  1
  H  H93  1  0.74087813  0.54099434  0.51878258  1
  H  H94  1  0.77643859  0.53732544  0.52191271  1
  H  H95  1  0.70628161  0.52693176  0.51086927  1
  H  H96  1  0.69747024  0.48168383  0.49781110  1
  H  H97  1  0.85155899  0.51674312  0.43286755  1
  H  H98  1  0.87389630  0.50860034  0.44468094  1
  H  H99  1  0.87286585  0.52774427  0.39719792  1
  H  H100  1  0.89543842  0.53707581  0.35096626  1
  H  H101  1  0.88722193  0.47669083  0.31592419  1
  H  H102  1  0.86492827  0.46720676  0.36305293  1
  H  H103  1  0.91251419  0.52912587  0.30121594  1
  H  H104  1  0.91304658  0.48515081  0.28542704  1
  H  H105  1  0.49132499  0.90822008  0.71738376  1
  H  H106  1  0.53537602  0.91869202  0.69858185  1
  H  H107  1  0.54881042  0.90518741  0.65399859  1
  H  H108  1  0.54679536  0.88433385  0.60391625  1
  H  H109  1  0.48436988  0.86723193  0.62072156  1
  H  H110  1  0.48643365  0.88823490  0.67142464  1
  H  H111  1  0.54201626  0.85966635  0.57054497  1
  H  H112  1  0.53450221  0.88070507  0.55160919  1
  H  H113  1  0.50793564  0.88794535  0.47728697  1
  H  H114  1  0.53193088  0.89096722  0.49459581  1
  H  H115  1  0.51090490  0.88875061  0.52084612  1
  H  H116  1  0.53284852  0.83229349  0.58067152  1
  H  H117  1  0.54817242  0.82107585  0.55325180  1
  H  H118  1  0.52474627  0.80859344  0.56482898  1
  H  H119  1  0.49386511  0.82217679  0.42504457  1
  H  H120  1  0.48842057  0.80361054  0.45554144  1
  H  H121  1  0.51117816  0.80621325  0.43417849  1
  H  H122  1  0.51939879  0.79195834  0.47956684  1
  H  H123  1  0.52570079  0.79440093  0.52257858  1
  H  H124  1  0.52386910  0.76657476  0.50559683  1
  H  H125  1  0.51827840  0.73096479  0.50149967  1
  H  H126  1  0.45571892  0.73134254  0.51837899  1
  H  H127  1  0.46163266  0.76794016  0.52151651  1
  H  H128  1  0.46806204  0.69928025  0.51063295  1
  H  H129  1  0.51313298  0.70165431  0.49765604  1
  H  H130  1  0.48706803  0.84841609  0.43272216  1
  H  H131  1  0.49700924  0.87262659  0.44476919  1
  H  H132  1  0.47730946  0.86787854  0.39703406  1
  H  H133  1  0.46947465  0.88857984  0.35084768  1
  H  H134  1  0.53043668  0.89308140  0.31820198  1
  H  H135  1  0.53763764  0.87230032  0.36398428  1
  H  H136  1  0.48023942  0.90950269  0.29979564  1
  H  H137  1  0.52340326  0.90497423  0.28360266  1
  H  H138  1  0.04073323  0.53171485  0.95088187  1
  H  H139  1  0.01985841  0.52891346  0.89923866  1
  H  H140  1  0.05707366  0.52812378  0.90163665  1
  H  H141  1  0.06635363  0.51916367  0.73160252  1
  H  H142  1  0.08465216  0.52026360  0.78597859  1
  H  H143  1  0.04791356  0.52222073  0.78222158  1
  H  H144  1  0.05978282  0.49337214  0.73536640  1
  H  H145  1  0.07954337  0.49438268  0.78924852  1
  H  H146  1  0.04292189  0.49619685  0.78585786  1
  H  H147  1  0.03782393  0.50591880  0.95423795  1
  H  H148  1  0.01603464  0.50274900  0.90314284  1
  H  H149  1  0.05260280  0.50212546  0.90502556  1
  H  H150  1  0.53843185  0.02010543  0.92826871  1
  H  H151  1  0.52283840  0.05159838  0.92474302  1
  H  H152  1  0.53416373  0.03158355  0.87588839  1
  H  H153  1  0.50710829  0.10066475  0.77124604  1
  H  H154  1  0.52407832  0.06924995  0.76894147  1
  H  H155  1  0.51149400  0.08592539  0.81929646  1
  H  H156  1  0.48489527  0.08602249  0.75896086  1
  H  H157  1  0.50053153  0.05555044  0.76278308  1
  H  H158  1  0.48780395  0.07195960  0.81338385  1
  H  H159  1  0.51506332  0.00737428  0.91906358  1
  H  H160  1  0.49910686  0.03734486  0.92183084  1
  H  H161  1  0.51018610  0.01816369  0.87301272  1
  H  H162  1  0.99747975  0.50792537  0.07292881  1
  H  H163  1  0.96452537  0.50089968  0.07534568  1
  H  H164  1  0.98260189  0.50232280  0.13007985  1
  H  H165  1  0.90554643  0.49432194  0.22917588  1
  H  H166  1  0.94296877  0.49383058  0.23151107  1
  H  H167  1  0.92147657  0.49599873  0.18122205  1
  H  H168  1  0.90980186  0.51994019  0.23825820  1
  H  H169  1  0.94618579  0.51974276  0.23625355  1
  H  H170  1  0.92359969  0.52208963  0.18630360  1
  H  H171  1  -0.00024062  0.53263583  0.08317115  1
  H  H172  1  0.96311199  0.52604085  0.07585157  1
  H  H173  1  0.98519548  0.52915255  0.12910486  1
  H  H174  1  0.49617790  0.99325069  0.07037322  1
  H  H175  1  0.52808641  0.98903439  0.10135477  1
  H  H176  1  0.49270859  0.97763180  0.11888905  1
  H  H177  1  0.52235940  0.94051144  0.26617167  1
  H  H178  1  0.49226738  0.94349113  0.23270909  1
  H  H179  1  0.52727623  0.95598325  0.21380521  1
  H  H180  1  0.52758699  0.92119806  0.24038940  1
  H  H181  1  0.49352187  0.92074234  0.21227867  1
  H  H182  1  0.52828252  0.93320631  0.19313293  1
  H  H183  1  0.49727993  0.97070497  0.04955594  1
  H  H184  1  0.52855211  0.96648023  0.08013548  1
  H  H185  1  0.49372841  0.95462358  0.09891137  1
  H  H186  1  0.53621194  0.01524013  0.07470944  1
  H  H187  1  0.50087172  0.02067264  0.09089610  1
  H  H188  1  0.53096367  0.02624293  0.12713267  1
  H  H189  1  0.48466003  0.06856561  0.25501414  1
  H  H190  1  0.51777720  0.05975900  0.23879507  1
  H  H191  1  0.48653863  0.05274029  0.20405838  1
  H  H192  1  0.48960939  0.09115280  0.23409073  1
  H  H193  1  0.52379869  0.08282359  0.21907397  1
  H  H194  1  0.49213139  0.07600654  0.18475006  1
  H  H195  1  0.53952728  0.03864607  0.05584782  1
  H  H196  1  0.50596147  0.04461562  0.07464290  1
  H  H197  1  0.53738469  0.05018819  0.11044762  1
  H  H198  1  0.01863352  0.53450415  0.07953754  1
  H  H199  1  0.04770027  0.52415115  0.07523211  1
  H  H200  1  0.02659794  0.53107661  0.12637897  1
  H  H201  1  0.10008074  0.51145172  0.23287160  1
  H  H202  1  0.06628247  0.52336681  0.23405682  1
  H  H203  1  0.08688814  0.51530567  0.18437436  1
  H  H204  1  0.08820562  0.48687066  0.23674505  1
  H  H205  1  0.05513254  0.49850180  0.23482184  1
  H  H206  1  0.07404869  0.49082001  0.18421854  1
  H  H207  1  0.00331512  0.51246303  0.07855985  1
  H  H208  1  0.03800544  0.49944926  0.07650750  1
  H  H209  1  0.02170192  0.50497402  0.13417676  1
  H  H210  1  0.96760292  0.50383682  0.95214429  1
  H  H211  1  0.98829141  0.50447276  0.90052904  1
  H  H212  1  0.95099156  0.50061691  0.90363531  1
  H  H213  1  0.94076110  0.49303688  0.73412126  1
  H  H214  1  0.92170825  0.49358030  0.78753944  1
  H  H215  1  0.95909145  0.49718634  0.78445726  1
  H  H216  1  0.94246364  0.51900265  0.73162990  1
  H  H217  1  0.92274921  0.51940242  0.78481642  1
  H  H218  1  0.96003664  0.52317124  0.78209632  1
  H  H219  1  0.96835926  0.52950885  0.95027263  1
  H  H220  1  0.98925082  0.53059282  0.89875872  1
  H  H221  1  0.95181904  0.52651958  0.90141625  1
  H  H222  1  0.50346846  0.96376951  0.95562508  1
  H  H223  1  0.53246226  0.96877622  0.91657854  1
  H  H224  1  0.49954272  0.94801806  0.90411364  1
  H  H225  1  0.52932391  0.92707251  0.75182973  1
  H  H226  1  0.49954830  0.91832446  0.79018319  1
  H  H227  1  0.53180719  0.94113290  0.79961605  1
  H  H228  1  0.51670201  0.94448010  0.73194419  1
  H  H229  1  0.48904304  0.93803202  0.77242989  1
  H  H230  1  0.52108631  0.96099155  0.78268597  1
  H  H231  1  0.49396755  0.98408534  0.93823111  1
  H  H232  1  0.52386361  0.98907395  0.89856056  1
  H  H233  1  0.49011765  0.96909936  0.88892088  1
  C  C234  1  0.01323131  0.52011979  0.03423265  1
  C  C235  1  0.99385735  0.52066871  0.03241921  1
  C  C236  1  0.98328343  0.52170501  0.00288535  1
  C  C237  1  0.99336622  0.52028051  0.97273180  1
  C  C238  1  0.01407027  0.51900930  0.97391435  1
  C  C239  1  0.02394899  0.51973483  0.00520195  1
  C  C240  1  0.51937909  0.01260703  0.96930371  1
  C  C241  1  0.51764356  0.99180228  0.97187307  1
  C  C242  1  0.51967447  0.98342393  0.00281186  1
  C  C243  1  0.51721242  0.99447755  0.03117082  1
  C  C244  1  0.52120031  0.01522195  0.02940136  1
  C  C245  1  0.52119919  0.02432667  -0.00180386  1
  C  C246  1  0.50155082  0.54001977  0.49643192  1
  C  C247  1  0.46306042  0.49957893  0.50494719  1
  C  C248  1  0.50103912  0.46395051  0.50358020  1
  C  C249  1  0.53990786  0.50386130  0.49506725  1
  C  C250  1  0.08995542  0.50458665  0.28138966  1
  C  C251  1  0.09118111  0.48911566  0.30211528  1
  C  C252  1  0.10330515  0.48976493  0.33207820  1
  C  C253  1  0.10371267  0.47267967  0.35163626  1
  C  C254  1  0.11525858  0.47292725  0.38025869  1
  C  C255  1  0.12678294  0.49047039  0.39060110  1
  C  C256  1  0.12732070  0.50739675  0.37102930  1
  C  C257  1  0.11574229  0.50708329  0.34237556  1
  C  C258  1  0.13617421  0.47552207  0.44204409  1
  C  C259  1  0.14887404  0.48117443  0.47240002  1
  C  C260  1  0.16912787  0.47921143  0.47097429  1
  C  C261  1  0.18118809  0.48570165  0.49857730  1
  C  C262  1  0.17363378  0.49373047  0.52760855  1
  C  C263  1  0.15312471  0.49451523  0.52954340  1
  C  C264  1  0.14087845  0.48865228  0.50165759  1
  C  C265  1  0.11916978  0.48983165  0.50230499  1
  C  C266  1  0.17755307  0.46957428  0.44157466  1
  C  C267  1  0.18804505  0.50173039  0.55439370  1
  C  C268  1  0.20290336  0.48511915  0.49643091  1
  C  C269  1  0.23290262  0.50612529  0.48766503  1
  C  C270  1  0.24235926  0.48948683  0.49232810  1
  C  C271  1  0.26278317  0.49148757  0.49410579  1
  C  C272  1  0.27458992  0.51012551  0.49049761  1
  C  C273  1  0.26444750  0.52664513  0.48469317  1
  C  C274  1  0.24396929  0.52468814  0.48306625  1
  C  C275  1  0.29585342  0.51230013  0.49229022  1
  C  C276  1  0.30700232  0.49711095  0.49752835  1
  C  C277  1  0.14528862  0.50374614  0.56021240  1
  C  C278  1  0.13300181  0.49671288  0.61550711  1
  C  C279  1  0.13041754  0.51648995  0.62029369  1
  C  C280  1  0.11945777  0.52185445  0.64712883  1
  C  C281  1  0.11082261  0.50786240  0.67047513  1
  C  C282  1  0.11452530  0.48814517  0.66593306  1
  C  C283  1  0.12579522  0.48278095  0.63939701  1
  C  C284  1  0.09846521  0.51369651  0.69732723  1
  C  C285  1  0.08947104  0.50151256  0.72107985  1
  C  C286  1  0.50183512  0.09129214  0.28230479  1
  C  C287  1  0.51852686  0.09719753  0.30074972  1
  C  C288  1  0.51782448  0.10912768  0.33106623  1
  C  C289  1  0.53471571  0.11526858  0.35112231  1
  C  C290  1  0.53382214  0.12655818  0.37997929  1
  C  C291  1  0.51579319  0.13198513  0.39037003  1
  C  C292  1  0.49901392  0.12673594  0.37052989  1
  C  C293  1  0.49992477  0.11541148  0.34176226  1
  C  C294  1  0.52973017  0.14655116  0.44245613  1
  C  C295  1  0.52310122  0.15720310  0.47260391  1
  C  C296  1  0.52355716  0.17788825  0.47120098  1
  C  C297  1  0.51627678  0.18763570  0.49861782  1
  C  C298  1  0.50900800  0.17742779  0.52756309  1
  C  C299  1  0.50967517  0.15689850  0.52948924  1
  C  C300  1  0.51631152  0.14676383  0.50174268  1
  C  C301  1  0.51663566  0.12490590  0.50238570  1
  C  C302  1  0.53251190  0.18948631  0.44201178  1
  C  C303  1  0.50020180  0.18895175  0.55426520  1
  C  C304  1  0.51540673  0.20932354  0.49654848  1
  C  C305  1  0.49275554  0.23195354  0.48766713  1
  C  C306  1  0.50866042  0.24694729  0.49247021  1
  C  C307  1  0.50547476  0.26649679  0.49418187  1
  C  C308  1  0.48632550  0.27193910  0.49040026  1
  C  C309  1  0.47054580  0.25630214  0.48448369  1
  C  C310  1  0.47370506  0.23667749  0.48288214  1
  C  C311  1  0.48311537  0.29233457  0.49213189  1
  C  C312  1  0.49785814  0.30818630  0.49757748  1
  C  C313  1  0.50111029  0.14598152  0.55996135  1
  C  C314  1  0.50895887  0.13610145  0.61520319  1
  C  C315  1  0.48956601  0.12674704  0.61951914  1
  C  C316  1  0.48499505  0.11402876  0.64610813  1
  C  C317  1  0.49944277  0.11028363  0.66963061  1
  C  C318  1  0.51864290  0.12086118  0.66578574  1
  C  C319  1  0.52324598  0.13372039  0.63929178  1
  C  C320  1  0.49439030  0.09679600  0.69714104  1
  C  C321  1  0.50717056  0.09219200  0.72097029  1
  C  C322  1  0.91427447  0.50416884  0.71846888  1
  C  C323  1  0.90824642  0.48874844  0.69753222  1
  C  C324  1  0.89572999  0.48933609  0.66821109  1
  C  C325  1  0.89061117  0.47229901  0.64809562  1
  C  C326  1  0.87927153  0.47260162  0.61933674  1
  C  C327  1  0.87279882  0.49018530  0.60933596  1
  C  C328  1  0.87701142  0.50710063  0.62934518  1
  C  C329  1  0.88854440  0.50678914  0.65794544  1
  C  C330  1  0.85940412  0.47524711  0.55742722  1
  C  C331  1  0.84828119  0.48089344  0.52723597  1
  C  C332  1  0.82748328  0.47899603  0.52871686  1
  C  C333  1  0.81721136  0.48549294  0.50132197  1
  C  C334  1  0.82700935  0.49348164  0.47245376  1
  C  C335  1  0.84773821  0.49428517  0.47051137  1
  C  C336  1  0.85837028  0.48837029  0.49816672  1
  C  C337  1  0.88041364  0.48956534  0.49754584  1
  C  C338  1  0.81641468  0.46938978  0.55795676  1
  C  C339  1  0.81482038  0.50143187  0.44584977  1
  C  C340  1  0.79533353  0.48491611  0.50348973  1
  C  C341  1  0.77119641  0.50592956  0.51246619  1
  C  C342  1  0.75708582  0.48925549  0.50762970  1
  C  C343  1  0.73721479  0.49122480  0.50584444  1
  C  C344  1  0.73061233  0.50987097  0.50961067  1
  C  C345  1  0.74537868  0.52643290  0.51558178  1
  C  C346  1  0.76531493  0.52450658  0.51722292  1
  C  C347  1  0.70994906  0.51202084  0.50781382  1
  C  C348  1  0.69453411  0.49680403  0.50242576  1
  C  C349  1  0.85814960  0.50355127  0.44009984  1
  C  C350  1  0.86855581  0.49645765  0.38476220  1
  C  C351  1  0.87661587  0.51626161  0.38041338  1
  C  C352  1  0.88912215  0.52162354  0.35378740  1
  C  C353  1  0.89398777  0.50754580  0.33039024  1
  C  C354  1  0.88457456  0.48787861  0.33414104  1
  C  C355  1  0.87193064  0.48247007  0.36066621  1
  C  C356  1  0.90728604  0.51330029  0.30287062  1
  C  C357  1  0.91285104  0.50068980  0.27947606  1
  C  C358  1  0.50684612  0.91455280  0.71920522  1
  C  C359  1  0.52030082  0.91097236  0.69592137  1
  C  C360  1  0.51785356  0.89832846  0.66671082  1
  C  C361  1  0.53462405  0.89690587  0.64668816  1
  C  C362  1  0.53342264  0.88535755  0.61813041  1
  C  C363  1  0.51516103  0.87506491  0.60832906  1
  C  C364  1  0.49842512  0.87573079  0.62810287  1
  C  C365  1  0.49967040  0.88740375  0.65674147  1
  C  C366  1  0.52966307  0.86506857  0.55740663  1
  C  C367  1  0.52348803  0.85270366  0.52703747  1
  C  C368  1  0.52384578  0.83215788  0.52868910  1
  C  C369  1  0.51647685  0.82038701  0.50123707  1
  C  C370  1  0.50908330  0.82856948  0.47228940  1
  C  C371  1  0.50965812  0.84927475  0.47041783  1
  C  C372  1  0.51650503  0.86130485  0.49806398  1
  C  C373  1  0.51677089  0.88326200  0.49768130  1
  C  C374  1  0.53270152  0.82311706  0.55819120  1
  C  C375  1  0.50022712  0.81460180  0.44547452  1
  C  C376  1  0.51555289  0.79847673  0.50340706  1
  C  C377  1  0.49288283  0.76960445  0.51228011  1
  C  C378  1  0.50877378  0.75905828  0.50764730  1
  C  C379  1  0.50557092  0.73862191  0.50590826  1
  C  C380  1  0.48642107  0.72783042  0.50952197  1
  C  C381  1  0.47066214  0.73905553  0.51529485  1
  C  C382  1  0.47383833  0.75956479  0.51691298  1
  C  C383  1  0.48319780  0.70653972  0.50777153  1
  C  C384  1  0.49793900  0.69483252  0.50245913  1
  C  C385  1  0.50088131  0.85780551  0.44008869  1
  C  C386  1  0.50846614  0.86981023  0.38502390  1
  C  C387  1  0.48913279  0.87395646  0.38036623  1
  C  C388  1  0.48460660  0.88540828  0.35359308  1
  C  C389  1  0.49905480  0.89300164  0.32999750  1
  C  C390  1  0.51828957  0.88781854  0.33479208  1
  C  C391  1  0.52274104  0.87612576  0.36124324  1
  C  C392  1  0.49512811  0.90556033  0.30208567  1
  C  C393  1  0.50970991  0.91112426  0.27927179  1
  C  C394  1  0.40297365  0.49981177  0.50210492  1
  C  C395  1  0.36622993  0.49927969  0.49967947  1
  C  C396  1  0.42366538  0.50008835  0.50397120  1
  C  C397  1  0.44162833  0.50005258  0.50489251  1
  C  C398  1  0.34549795  0.49932504  0.49877366  1
  C  C399  1  0.32754649  0.49966871  0.49788315  1
  C  C400  1  0.49941933  0.40373237  0.50156693  1
  C  C401  1  0.49741834  0.36693381  0.49955605  1
  C  C402  1  0.50034948  0.42446093  0.50303872  1
  C  C403  1  0.50087931  0.44248163  0.50369494  1
  C  C404  1  0.49602246  0.34604727  0.49867185  1
  C  C405  1  0.49497590  0.32793437  0.49773867  1
  C  C406  1  0.59935815  0.49994893  0.49797223  1
  C  C407  1  0.63590946  0.49900955  0.50030975  1
  C  C408  1  0.57886199  0.50093977  0.49614517  1
  C  C409  1  0.56110007  0.50212835  0.49520252  1
  C  C410  1  0.65664879  0.49899218  0.50119519  1
  C  C411  1  0.67469687  0.49933387  0.50208231  1
  C  C412  1  0.49930112  0.59968546  0.49852992  1
  C  C413  1  0.49745102  0.63595491  0.50048317  1
  C  C414  1  0.50011171  0.57919525  0.49707333  1
  C  C415  1  0.50072196  0.56133698  0.49639192  1
  C  C416  1  0.49610869  0.65645940  0.50134324  1
  C  C417  1  0.49507602  0.67428026  0.50227757  1
  C  C418  1  0.02978723  0.51824511  0.94671707  1
  C  C419  1  0.02620034  0.51622602  0.90919108  1
  C  C420  1  0.04658511  0.51491032  0.89373961  1
  C  C421  1  0.04713209  0.51302607  0.85797814  1
  C  C422  1  0.07175376  0.50569023  0.74081097  1
  C  C423  1  0.07385088  0.50737619  0.77894216  1
  C  C424  1  0.05356018  0.50929450  0.79364819  1
  C  C425  1  0.05286173  0.51125165  0.82939530  1
  C  C426  1  0.52245499  0.01978750  0.93376172  1
  C  C427  1  0.51490882  0.03722651  0.91673025  1
  C  C428  1  0.51825281  0.03303384  0.87958476  1
  C  C429  1  0.51262324  0.04701894  0.85622084  1
  C  C430  1  0.50110777  0.08741837  0.75629287  1
  C  C431  1  0.50820271  0.06953862  0.77309623  1
  C  C432  1  0.50390379  0.07139668  0.81016289  1
  C  C433  1  0.50959304  0.05622768  0.83114014  1
  C  C434  1  0.99166443  0.51907568  0.06757103  1
  C  C435  1  0.97225018  0.51502182  0.08354250  1
  C  C436  1  0.97559473  0.51532989  0.12114401  1
  C  C437  1  0.95833701  0.51403501  0.14154702  1
  C  C438  1  0.91543320  0.50582187  0.24310758  1
  C  C439  1  0.93595798  0.50707043  0.22661855  1
  C  C440  1  0.93179470  0.50923363  0.18944658  1
  C  C441  1  0.94812816  0.51173534  0.16664043  1
  C  C442  1  0.50664401  0.98383003  0.06020529  1
  C  C443  1  0.51859390  0.97677446  0.08887136  1
  C  C444  1  0.50294451  0.96683189  0.11263993  1
  C  C445  1  0.51007722  0.95936935  0.14294585  1
  C  C446  1  0.51523852  0.92700585  0.25316705  1
  C  C447  1  0.50249842  0.93339274  0.22450072  1
  C  C448  1  0.51795463  0.94374343  0.20024457  1
  C  C449  1  0.51081563  0.95154991  0.17014292  1
  C  C450  1  0.52824488  0.02587640  0.06138387  1
  C  C451  1  0.51302378  0.03256379  0.08538277  1
  C  C452  1  0.52448520  0.03912632  0.11724063  1
  C  C453  1  0.51351278  0.04715458  0.14329689  1
  C  C454  1  0.49675483  0.08060037  0.24918929  1
  C  C455  1  0.51137662  0.07171815  0.22645254  1
  C  C456  1  0.49913551  0.06373368  0.19569089  1
  C  C457  1  0.50936178  0.05486168  0.16945908  1
  C  C458  1  0.01629114  0.52040868  0.06886091  1
  C  C459  1  0.03447389  0.51431445  0.08335276  1
  C  C460  1  0.03210767  0.51678097  0.12143469  1
  C  C461  1  0.04974662  0.51689108  0.14127897  1
  C  C462  1  0.08716184  0.50229392  0.24419190  1
  C  C463  1  0.06856053  0.50824520  0.22722589  1
  C  C464  1  0.07234722  0.50650568  0.18984026  1
  C  C465  1  0.05845529  0.51279340  0.16654915  1
  C  C466  1  0.97748837  0.51758839  0.94528126  1
  C  C467  1  0.98058621  0.51691015  0.90777808  1
  C  C468  1  0.95960443  0.51413112  0.89280919  1
  C  C469  1  0.95850338  0.51275497  0.85712969  1
  C  C470  1  0.93266513  0.50556783  0.73968269  1
  C  C471  1  0.93056631  0.50699119  0.77769199  1
  C  C472  1  0.95136821  0.50966104  0.79273079  1
  C  C473  1  0.95234821  0.51104990  0.82844510  1
  C  C474  1  0.50799559  0.97842065  0.94447614  1
  C  C475  1  0.51890123  0.97537220  0.91212656  1
  C  C476  1  0.50389881  0.96218136  0.89081372  1
  C  C477  1  0.51055217  0.95844790  0.85805237  1
  C  C478  1  0.51430188  0.92991703  0.74462783  1
  C  C479  1  0.50312709  0.93239601  0.77687736  1
  C  C480  1  0.51752412  0.94711699  0.79721932  1
  C  C481  1  0.51117136  0.95190373  0.82972830  1
  N  N482  1  0.39638042  0.51791371  0.50181424  1
  N  N483  1  0.37735742  0.51754234  0.50064764  1
  N  N484  1  0.37276884  0.48122468  0.49916105  1
  N  N485  1  0.39179557  0.48149497  0.50030730  1
  N  N486  1  0.51716386  0.39643968  0.50082424  1
  N  N487  1  0.51606945  0.37732465  0.49988929  1
  N  N488  1  0.47974627  0.37417519  0.49977622  1
  N  N489  1  0.48072180  0.39325963  0.50072095  1
  N  N490  1  0.61122483  0.51791759  0.49927126  1
  N  N491  1  0.63009521  0.51737370  0.50038839  1
  N  N492  1  0.62412412  0.48106878  0.49982175  1
  N  N493  1  0.60518303  0.48151612  0.49871067  1
  N  N494  1  0.51708528  0.61189650  0.49922463  1
  N  N495  1  0.51607223  0.63072093  0.50013162  1
  N  N496  1  0.47974424  0.62381815  0.50027764  1
  N  N497  1  0.48063856  0.60499264  0.49936457  1
  O  O498  1  0.50305785  0.53206539  0.52481990  1
  O  O499  1  0.47114780  0.49823208  0.47655689  1
  O  O500  1  0.50208745  0.47291687  0.53161981  1
  O  O501  1  0.53105027  0.50343568  0.46701652  1
  O  O502  1  0.49991892  0.47196168  0.47514990  1
  O  O503  1  0.53191142  0.50568749  0.52341168  1
  O  O504  1  0.50083060  0.53109787  0.46836296  1
  O  O505  1  0.47198747  0.50043629  0.53296297  1
  O  O506  1  0.13816818  0.49200184  0.41868841  1
  O  O507  1  0.14278390  0.49043267  0.58878920  1
  O  O508  1  0.21286924  0.50467212  0.48777791  1
  O  O509  1  0.51348803  0.14273768  0.41845848  1
  O  O510  1  0.51449158  0.14799276  0.58873721  1
  O  O511  1  0.49540508  0.21260912  0.48780197  1
  O  O512  1  0.86197159  0.49174333  0.58115007  1
  O  O513  1  0.85697361  0.49020008  0.41128144  1
  O  O514  1  0.79082981  0.50450020  0.51235566  1
  O  O515  1  0.51284742  0.86391445  0.58006481  1
  O  O516  1  0.51408141  0.85940848  0.41140450  1
  O  O517  1  0.49556616  0.78968666  0.51210676  1
