# generated using pymatgen
data_SiH216C309O16
_symmetry_space_group_name_H-M   'P 1'
_cell_length_a   46.34735390
_cell_length_b   44.57889109
_cell_length_c   51.29838448
_cell_angle_alpha   89.69377753
_cell_angle_beta   91.36634387
_cell_angle_gamma   90.02146852
_symmetry_Int_Tables_number   1
_chemical_formula_structural   SiH216C309O16
_chemical_formula_sum   'Si1 H216 C309 O16'
_cell_volume   105956.63966057
_cell_formula_units_Z   1
loop_
 _symmetry_equiv_pos_site_id
 _symmetry_equiv_pos_as_xyz
  1  'x, y, z'
loop_
 _atom_site_type_symbol
 _atom_site_label
 _atom_site_symmetry_multiplicity
 _atom_site_fract_x
 _atom_site_fract_y
 _atom_site_fract_z
 _atom_site_occupancy
  Si  Si0  1  0.53229801  0.53646421  0.51080494  1
  H  H1  1  0.01391750  0.07200500  0.03873895  1
  H  H2  1  0.98906644  0.07452824  0.00954092  1
  H  H3  1  0.02772148  0.00378557  0.03368467  1
  H  H4  1  0.05437838  0.00316846  0.00723702  1
  H  H5  1  0.05907881  0.04568702  0.97793172  1
  H  H6  1  0.05854072  0.07484410  0.00208745  1
  H  H7  1  1.01351207  0.01035125  0.97351673  1
  H  H8  1  -0.01249640  0.00854280  1.00058161  1
  H  H9  1  0.63903263  0.54541541  0.56629118  1
  H  H10  1  0.53814995  0.62967208  0.43407520  1
  H  H11  1  0.49755753  0.55601832  0.47195440  1
  H  H12  1  0.52644820  0.44062714  0.43706207  1
  H  H13  1  0.43912030  0.53762902  0.57619868  1
  H  H14  1  0.57877790  0.59093937  0.50282395  1
  H  H15  1  0.48443112  0.48099645  0.50225727  1
  H  H16  1  0.56311664  0.51918318  0.47202210  1
  H  H17  1  0.51599728  0.50400601  0.55107128  1
  H  H18  1  0.47815255  0.58669767  0.52018277  1
  H  H19  1  0.58722545  0.48822069  0.51697329  1
  H  H20  1  0.54833309  0.56225273  0.55707560  1
  H  H21  1  0.87436733  0.43358928  0.74004464  1
  H  H22  1  0.87956140  0.37879905  0.70401111  1
  H  H23  1  0.91634409  0.34451014  0.71146564  1
  H  H24  1  0.96477374  0.33053728  0.72736765  1
  H  H25  1  0.97139487  0.41408711  0.76892514  1
  H  H26  1  0.92297736  0.42868420  0.75248733  1
  H  H27  1  0.01242620  0.33088785  0.73469744  1
  H  H28  1  0.99357961  0.31788905  0.76218542  1
  H  H29  1  0.01306754  0.30521957  0.82892913  1
  H  H30  1  0.00404990  0.28912062  0.79850727  1
  H  H31  1  -0.00650467  0.32642862  0.80526868  1
  H  H32  1  0.04227707  0.35822494  0.72321445  1
  H  H33  1  0.07102989  0.33299710  0.71785316  1
  H  H34  1  0.07806054  0.37045585  0.72729094  1
  H  H35  1  0.11839543  0.32674104  0.83459022  1
  H  H36  1  0.12760890  0.35717050  0.81398922  1
  H  H37  1  0.13594538  0.32001305  0.80518728  1
  H  H38  1  0.13571673  0.33971885  0.76712324  1
  H  H39  1  0.11478949  0.35439096  0.74052734  1
  H  H40  1  0.15626431  0.36308924  0.73618362  1
  H  H41  1  0.19905604  0.39016061  0.72233863  1
  H  H42  1  0.18433140  0.45896923  0.77968806  1
  H  H43  1  0.13730787  0.43491809  0.78971243  1
  H  H44  1  0.23219922  0.45630027  0.75504390  1
  H  H45  1  0.24113873  0.39240008  0.73437462  1
  H  H46  1  0.08087770  0.32899097  0.85096275  1
  H  H47  1  0.04549581  0.31435986  0.84949604  1
  H  H48  1  0.06896514  0.31107316  0.88790143  1
  H  H49  1  0.05848637  0.28481281  0.92902928  1
  H  H50  1  0.07386114  0.19963711  0.89208542  1
  H  H51  1  0.08331260  0.22616522  0.85053240  1
  H  H52  1  0.05353769  0.24082888  0.95470572  1
  H  H53  1  0.06154502  0.17708618  0.93038577  1
  H  H54  1  0.65857268  0.87016415  0.27629627  1
  H  H55  1  0.69512416  0.89095704  0.32408307  1
  H  H56  1  0.72828154  0.92921069  0.31925604  1
  H  H57  1  0.74908861  0.97201657  0.29630318  1
  H  H58  1  0.69117911  0.95610010  0.23088296  1
  H  H59  1  0.67023495  0.91290845  0.25376316  1
  H  H60  1  0.77263977  -0.00044078  0.26438455  1
  H  H61  1  0.74387769  0.01901639  0.27874185  1
  H  H62  1  0.70438145  0.08470505  0.26413667  1
  H  H63  1  0.73018891  0.06679140  0.28450623  1
  H  H64  1  0.70478244  0.04514838  0.26642105  1
  H  H65  1  0.79025448  0.99013251  0.23088982  1
  H  H66  1  0.81896964  0.01631045  0.23235435  1
  H  H67  1  0.80491456  0.00393205  0.20184564  1
  H  H68  1  0.75212188  0.12888218  0.18789440  1
  H  H69  1  0.76470817  0.10202082  0.16538408  1
  H  H70  1  0.78896405  0.11978095  0.18742355  1
  H  H71  1  0.81487496  0.08045814  0.18202088  1
  H  H72  1  0.81869071  0.04101316  0.18576826  1
  H  H73  1  0.84732655  0.06044677  0.15872310  1
  H  H74  1  0.87822467  0.06117742  0.12120070  1
  H  H75  1  0.80345614  0.05045289  0.06973266  1
  H  H76  1  0.77225373  0.04886525  0.10823533  1
  H  H77  1  0.85358123  0.05181130  0.05087245  1
  H  H78  1  0.90113806  0.07174480  0.09069706  1
  H  H79  1  0.71564949  0.12004200  0.20453895  1
  H  H80  1  0.70185079  0.10953422  0.23501924  1
  H  H81  1  0.68534812  0.15143236  0.21622260  1
  H  H82  1  0.65413581  0.19148902  0.23254607  1
  H  H83  1  0.72223451  0.21754672  0.28744348  1
  H  H84  1  0.75282703  0.17728911  0.27114514  1
  H  H85  1  0.64627096  0.23451187  0.26072774  1
  H  H86  1  0.69878855  0.24851196  0.29758509  1
  H  H87  1  0.83674729  0.69795718  0.71849045  1
  H  H88  1  0.82955431  0.64856158  0.76068334  1
  H  H89  1  0.86988778  0.64571378  0.79226649  1
  H  H90  1  0.91973092  0.65864452  0.80556871  1
  H  H91  1  0.92670854  0.71590236  0.73773735  1
  H  H92  1  0.87836099  0.70007960  0.72246795  1
  H  H93  1  0.96744653  0.66442698  0.80586961  1
  H  H94  1  0.94839131  0.69493782  0.81923220  1
  H  H95  1  0.96453100  0.76924377  0.83578600  1
  H  H96  1  0.95657914  0.73248904  0.84595238  1
  H  H97  1  0.94597056  0.74477409  0.81428202  1
  H  H98  1  0.99451478  0.65731664  0.77675736  1
  H  H99  1  0.02293203  0.64663051  0.79850833  1
  H  H100  1  0.03042238  0.66143799  0.76723136  1
  H  H101  1  0.06859259  0.78044771  0.81510786  1
  H  H102  1  0.07799233  0.76031753  0.78671586  1
  H  H103  1  0.08763462  0.74637217  0.81802616  1
  H  H104  1  0.08837961  0.70310457  0.79774337  1
  H  H105  1  0.06784718  0.67535100  0.78087918  1
  H  H106  1  0.11451555  0.67002083  0.77419757  1
  H  H107  1  0.15960998  0.65934256  0.75268687  1
  H  H108  1  0.13897731  0.72638769  0.69410455  1
  H  H109  1  0.09348724  0.73730911  0.71624266  1
  H  H110  1  0.18326602  0.70058900  0.69033106  1
  H  H111  1  0.19654277  0.64830855  0.72869552  1
  H  H112  1  0.03162625  0.79849472  0.81933849  1
  H  H113  1  0.99532724  0.79379118  0.82809749  1
  H  H114  1  0.01315872  0.83692263  0.83707914  1
  H  H115  1  0.00194623  0.88137124  0.86296409  1
  H  H116  1  0.02058364  0.83147833  0.93394257  1
  H  H117  1  0.02973972  0.78618741  0.90775576  1
  H  H118  1  0.99914231  0.90696640  0.90214402  1
  H  H119  1  0.01160516  0.87449264  0.95489500  1
  H  H120  1  0.39169446  0.82270981  0.25440850  1
  H  H121  1  0.34635289  0.82334915  0.29749567  1
  H  H122  1  0.31220653  0.86381224  0.29549577  1
  H  H123  1  0.29906490  0.91541601  0.28245484  1
  H  H124  1  0.37769558  0.92281491  0.23922347  1
  H  H125  1  0.39194914  0.87169729  0.25387597  1
  H  H126  1  0.29833847  0.96393531  0.27584375  1
  H  H127  1  0.28633527  0.94367715  0.24801165  1
  H  H128  1  0.27425510  0.96104693  0.18164369  1
  H  H129  1  0.26005395  0.95226511  0.21226517  1
  H  H130  1  0.29586136  0.94184645  0.20516108  1
  H  H131  1  0.32929794  0.99263904  0.28579624  1
  H  H132  1  0.30447750  0.02158245  0.29246971  1
  H  H133  1  0.34022326  0.03018341  0.28340318  1
  H  H134  1  0.29689397  0.07005588  0.17529143  1
  H  H135  1  0.32679327  0.08056929  0.19570195  1
  H  H136  1  0.29120517  0.08907451  0.20473072  1
  H  H137  1  0.30935585  0.08973625  0.24438338  1
  H  H138  1  0.32613372  0.06846277  0.26993075  1
  H  H139  1  0.33111665  0.11512917  0.27597587  1
  H  H140  1  0.35289581  0.16207396  0.29031957  1
  H  H141  1  0.42324772  0.14860772  0.23787225  1
  H  H142  1  0.40152412  0.10038521  0.22408915  1
  H  H143  1  0.42523122  0.19148928  0.26757252  1
  H  H144  1  0.36677337  0.20854349  0.29060147  1
  H  H145  1  0.29774396  0.03038795  0.15818594  1
  H  H146  1  0.28497274  0.99324118  0.16101491  1
  H  H147  1  0.27632303  0.01367842  0.12012079  1
  H  H148  1  0.24696110  0.00504984  0.08045075  1
  H  H149  1  0.16991527  0.02694144  0.12258529  1
  H  H150  1  0.19936115  0.03155376  0.16319751  1
  H  H151  1  0.19725929  0.00811113  0.05666112  1
  H  H152  1  0.14802907  0.00063950  0.09563826  1
  H  H153  1  0.65567380  0.46857379  0.61783061  1
  H  H154  1  0.71363162  0.49075023  0.55659925  1
  H  H155  1  0.67266333  0.50272963  0.52751102  1
  H  H156  1  0.61438162  0.47752842  0.58813308  1
  H  H157  1  0.82870584  0.45410457  0.64412269  1
  H  H158  1  0.86997554  0.43816831  0.67146075  1
  H  H159  1  0.81318225  0.42341113  0.73558008  1
  H  H160  1  0.77172173  0.43654038  0.70737027  1
  H  H161  1  0.57150786  0.45024423  0.37414166  1
  H  H162  1  0.60919961  0.40590864  0.44198122  1
  H  H163  1  0.59493673  0.44900284  0.46964624  1
  H  H164  1  0.55689565  0.49329266  0.40187743  1
  H  H165  1  0.65262646  0.29442392  0.36622079  1
  H  H166  1  0.67555030  0.25448527  0.34007729  1
  H  H167  1  0.63777314  0.29291990  0.26943416  1
  H  H168  1  0.61661712  0.33383133  0.29546961  1
  H  H169  1  0.37037845  0.55941884  0.59557001  1
  H  H170  1  0.39411732  0.64575127  0.56736853  1
  H  H171  1  0.43296589  0.62362187  0.54314793  1
  H  H172  1  0.42129601  0.53993833  0.57289384  1
  H  H173  1  0.27201813  0.68663437  0.65278728  1
  H  H174  1  0.23134618  0.70072682  0.67950939  1
  H  H175  1  0.23052114  0.61179814  0.71263508  1
  H  H176  1  0.27120703  0.59776459  0.68571014  1
  H  H177  1  0.57052146  0.71581397  0.45330231  1
  H  H178  1  0.61839721  0.65523517  0.40591936  1
  H  H179  1  0.60674258  0.61364139  0.43526293  1
  H  H180  1  0.55772011  0.67429721  0.48218924  1
  H  H181  1  0.65853934  0.77024661  0.32048079  1
  H  H182  1  0.67479345  0.81092084  0.29213769  1
  H  H183  1  0.63039543  0.87493815  0.33937232  1
  H  H184  1  0.61220096  0.83386398  0.36623465  1
  H  H185  1  0.43716440  0.42207603  0.40598269  1
  H  H186  1  0.49045216  0.35823289  0.44754437  1
  H  H187  1  0.50597189  0.39730351  0.47811565  1
  H  H188  1  0.45242229  0.46142221  0.43639343  1
  H  H189  1  0.45049522  0.24646721  0.35680780  1
  H  H190  1  0.43591761  0.20633865  0.32684806  1
  H  H191  1  0.37687206  0.26704641  0.28763938  1
  H  H192  1  0.39352407  0.30783141  0.31612508  1
  H  H193  1  0.43090539  0.43600344  0.60243403  1
  H  H194  1  0.41213368  0.52842696  0.62122089  1
  H  H195  1  0.44446706  0.54685599  0.59151407  1
  H  H196  1  0.47445631  0.45251735  0.57723077  1
  H  H197  1  0.29721210  0.49242651  0.69652587  1
  H  H198  1  0.25721364  0.47477968  0.72391164  1
  H  H199  1  0.28132040  0.38257990  0.70869864  1
  H  H200  1  0.32044548  0.40055821  0.68037173  1
  H  H201  1  0.45712720  0.60553341  0.37974040  1
  H  H202  1  0.47629739  0.68160115  0.42942252  1
  H  H203  1  0.48791233  0.64607838  0.46617010  1
  H  H204  1  0.47619299  0.57087275  0.41443868  1
  H  H205  1  0.43127327  0.78551277  0.34775640  1
  H  H206  1  0.41014740  0.82505591  0.31895069  1
  H  H207  1  0.38319220  0.75724780  0.26327552  1
  H  H208  1  0.40196871  0.71780437  0.29335766  1
  H  H209  1  0.65983895  0.62571629  0.58018893  1
  H  H210  1  0.62952524  0.56838463  0.64197064  1
  H  H211  1  0.58619094  0.55508766  0.61475693  1
  H  H212  1  0.61538825  0.61427132  0.55364928  1
  H  H213  1  0.74573744  0.61820529  0.72037765  1
  H  H214  1  0.78678524  0.63897627  0.74603410  1
  H  H215  1  0.81165135  0.69181957  0.67890619  1
  H  H216  1  0.77043023  0.67063326  0.65341930  1
  C  C217  1  0.04526533  0.05999165  0.98963829  1
  C  C218  1  0.02370569  0.04253742  0.00524342  1
  C  C219  1  0.00929187  0.01438235  0.99411255  1
  C  C220  1  0.00677474  0.06305134  0.01994233  1
  C  C221  1  0.03336070  0.01108605  0.01395096  1
  C  C222  1  0.59448274  0.55739327  0.56189249  1
  C  C223  1  0.51390677  0.59621680  0.45398601  1
  C  C224  1  0.51502559  0.57227481  0.47139877  1
  C  C225  1  0.53881863  0.57017807  0.48855844  1
  C  C226  1  0.56151518  0.59194454  0.48810313  1
  C  C227  1  0.56123255  0.61412848  0.46824118  1
  C  C228  1  0.53827725  0.61402676  0.45043386  1
  C  C229  1  0.50170636  0.45821384  0.46832674  1
  C  C230  1  0.50127703  0.48062663  0.48784253  1
  C  C231  1  0.52391163  0.50264409  0.48921950  1
  C  C232  1  0.54653158  0.50192606  0.47180716  1
  C  C233  1  0.54732651  0.47887112  0.45385790  1
  C  C234  1  0.52513825  0.45782210  0.45192009  1
  C  C235  1  0.45627874  0.56420158  0.55136357  1
  C  C236  1  0.45477156  0.53924169  0.56932488  1
  C  C237  1  0.47460963  0.51810571  0.56315641  1
  C  C238  1  0.49874661  0.52011860  0.54842435  1
  C  C239  1  0.50039615  0.54493152  0.53193409  1
  C  C240  1  0.47798747  0.56774188  0.53354039  1
  C  C241  1  0.61830107  0.53925441  0.55751369  1
  C  C242  1  0.61534423  0.51177142  0.54495410  1
  C  C243  1  0.58959516  0.50723992  0.53004631  1
  C  C244  1  0.56642056  0.52847495  0.53184335  1
  C  C245  1  0.56744125  0.54995920  0.55148105  1
  C  C246  1  0.87048802  0.41988756  0.72264663  1
  C  C247  1  0.88749116  0.39578265  0.71768167  1
  C  C248  1  0.91550006  0.38805428  0.72983211  1
  C  C249  1  0.92830192  0.36014543  0.72389754  1
  C  C250  1  0.95556031  0.35186098  0.73335552  1
  C  C251  1  0.97107666  0.37112313  0.74985043  1
  C  C252  1  0.95908698  0.39885583  0.75633081  1
  C  C253  1  0.93173760  0.40708015  0.74674552  1
  C  C254  1  0.00962638  0.33438675  0.75573606  1
  C  C255  1  0.03797493  0.33178446  0.77062408  1
  C  C256  1  0.06347625  0.34141746  0.75861692  1
  C  C257  1  0.08955105  0.34067733  0.77335819  1
  C  C258  1  0.09068420  0.33184561  0.79986300  1
  C  C259  1  0.06497039  0.32241018  0.81157626  1
  C  C260  1  0.03874173  0.32146193  0.79688783  1
  C  C261  1  0.01113276  0.31008825  0.80803985  1
  C  C262  1  0.06365490  0.35127014  0.73052639  1
  C  C263  1  0.11931912  0.33398261  0.81421148  1
  C  C264  1  0.11634459  0.35301313  0.76188356  1
  C  C265  1  0.14477162  0.39705440  0.76458524  1
  C  C266  1  0.16211266  0.38410658  0.74573209  1
  C  C267  1  0.18729574  0.39833670  0.73901493  1
  C  C268  1  0.19694740  0.42416307  0.75264562  1
  C  C269  1  0.17802732  0.43801339  0.77029496  1
  C  C270  1  0.15189702  0.42465948  0.77597377  1
  C  C271  1  0.22520959  0.43480839  0.74699481  1
  C  C272  1  0.24338880  0.41672918  0.73347179  1
  C  C273  1  0.06645201  0.31367782  0.83994534  1
  C  C274  1  0.07447981  0.26990802  0.86615046  1
  C  C275  1  0.06878599  0.28663514  0.88843776  1
  C  C276  1  0.06370398  0.27188244  0.91180190  1
  C  C277  1  0.06496839  0.24034319  0.91357256  1
  C  C278  1  0.07235095  0.22404322  0.89128765  1
  C  C279  1  0.07756354  0.23880615  0.86778792  1
  C  C280  1  0.05873599  0.22570118  0.93880053  1
  C  C281  1  0.05946684  0.19649612  0.94283308  1
  C  C282  1  0.66626974  0.87104718  0.29664667  1
  C  C283  1  0.68554973  0.89241524  0.30446042  1
  C  C284  1  0.69719689  0.91726891  0.28897619  1
  C  C285  1  0.71966791  0.93505501  0.29994143  1
  C  C286  1  0.73149039  0.95950473  0.28694986  1
  C  C287  1  0.72105847  0.96747343  0.26209693  1
  C  C288  1  0.69916594  0.95012596  0.25040932  1
  C  C289  1  0.68741076  0.92559379  0.26352684  1
  C  C290  1  0.75240625  0.01170630  0.25994030  1
  C  C291  1  0.75706749  0.03773663  0.24144374  1
  C  C292  1  0.77799406  0.03598161  0.22178843  1
  C  C293  1  0.78055571  0.05964230  0.20342409  1
  C  C294  1  0.76263383  0.08521525  0.20492588  1
  C  C295  1  0.74142124  0.08622926  0.22422065  1
  C  C296  1  0.73921029  0.06342427  0.24330824  1
  C  C297  1  0.71864352  0.06517882  0.26549901  1
  C  C298  1  0.79887794  0.01030643  0.22160788  1
  C  C299  1  0.76708829  0.11015031  0.18555988  1
  C  C300  1  0.80285216  0.05905941  0.18249153  1
  C  C301  1  0.80755491  0.05508785  0.13600046  1
  C  C302  1  0.83738379  0.05846740  0.13933614  1
  C  C303  1  0.85500971  0.05891900  0.11785632  1
  C  C304  1  0.84359504  0.05601213  0.09206479  1
  C  C305  1  0.81310276  0.05259101  0.08924154  1
  C  C306  1  0.79550306  0.05193479  0.11078818  1
  C  C307  1  0.86253979  0.05574156  0.07046348  1
  C  C308  1  0.89243997  0.06022142  0.07327382  1
  C  C309  1  0.72198202  0.11309171  0.22452680  1
  C  C310  1  0.72041902  0.16097447  0.24390766  1
  C  C311  1  0.69305736  0.16543801  0.23227805  1
  C  C312  1  0.67585606  0.18858156  0.24083600  1
  C  C313  1  0.68574663  0.20830953  0.26060201  1
  C  C314  1  0.71380797  0.20357834  0.27164389  1
  C  C315  1  0.73117809  0.18064235  0.26281545  1
  C  C316  1  0.66788264  0.23242079  0.26950348  1
  C  C317  1  0.67678822  0.25035026  0.28949931  1
  C  C318  1  0.82799669  0.67765332  0.72720207  1
  C  C319  1  0.84068721  0.66525087  0.74897820  1
  C  C320  1  0.86956413  0.67302662  0.75713178  1
  C  C321  1  0.88224747  0.66119458  0.78035980  1
  C  C322  1  0.91013648  0.66873973  0.78800825  1
  C  C323  1  0.92580151  0.68872605  0.77263257  1
  C  C324  1  0.91404281  0.70043514  0.74940207  1
  C  C325  1  0.88645688  0.69219348  0.74138488  1
  C  C326  1  0.96450830  0.68892617  0.80472547  1
  C  C327  1  0.99230079  0.70584558  0.80779870  1
  C  C328  1  0.01700370  0.69448865  0.79556375  1
  C  C329  1  0.04241827  0.71194589  0.79561127  1
  C  C330  1  0.04256204  0.74075683  0.80731990  1
  C  C331  1  0.01714095  0.75232599  0.81831346  1
  C  C332  1  0.99165187  0.73495021  0.81862385  1
  C  C333  1  0.96352597  0.74598270  0.82915105  1
  C  C334  1  0.01616654  0.66364123  0.78388268  1
  C  C335  1  0.07035783  0.75798811  0.80680614  1
  C  C336  1  0.06977576  0.69961216  0.78425624  1
  C  C337  1  0.10141072  0.70554215  0.74744314  1
  C  C338  1  0.11992199  0.68303701  0.75691669  1
  C  C339  1  0.14552618  0.67657122  0.74420777  1
  C  C340  1  0.15358315  0.69184360  0.72116419  1
  C  C341  1  0.13394661  0.71403549  0.71181212  1
  C  C342  1  0.10832635  0.72051229  0.72437596  1
  C  C343  1  0.18020803  0.68582778  0.70707729  1
  C  C344  1  0.19971718  0.66345694  0.71222268  1
  C  C345  1  0.01684582  0.78344518  0.82962605  1
  C  C346  1  0.02075764  0.80824398  0.87087823  1
  C  C347  1  0.01367481  0.83526674  0.85828901  1
  C  C348  1  0.00817552  0.86058246  0.87286157  1
  C  C349  1  0.01089178  0.86045647  0.90045797  1
  C  C350  1  0.01873422  0.83280669  0.91274071  1
  C  C351  1  0.02370570  0.80721587  0.89811299  1
  C  C352  1  0.00600536  0.88783996  0.91417357  1
  C  C353  1  0.01061824  0.89307804  0.94084018  1
  C  C354  1  0.38266926  0.81789266  0.27347062  1
  C  C355  1  0.36017952  0.83363808  0.28297614  1
  C  C356  1  0.35229375  0.86339236  0.27463277  1
  C  C357  1  0.32638891  0.87663340  0.28295287  1
  C  C358  1  0.31884807  0.90544455  0.27536879  1
  C  C359  1  0.33723983  0.92160635  0.25920467  1
  C  C360  1  0.36350997  0.90955053  0.25142210  1
  C  C361  1  0.37112196  0.88078134  0.25924761  1
  C  C362  1  0.30176459  0.96087357  0.25484208  1
  C  C363  1  0.29978977  0.98975408  0.23984140  1
  C  C364  1  0.31188172  0.01570046  0.25139390  1
  C  C365  1  0.31305130  0.04229296  0.23642344  1
  C  C366  1  0.30310446  0.04247363  0.21003306  1
  C  C367  1  0.29298857  0.01566226  0.19828672  1
  C  C368  1  0.29067182  0.98913862  0.21329788  1
  C  C369  1  0.27971681  0.95984541  0.20248242  1
  C  C370  1  0.32201283  0.01499124  0.27947471  1
  C  C371  1  0.30456445  0.07177388  0.19557185  1
  C  C372  1  0.32416242  0.07084131  0.24862913  1
  C  C373  1  0.36435477  0.10501098  0.24826659  1
  C  C374  1  0.35112354  0.12240462  0.26714801  1
  C  C375  1  0.36371719  0.14919157  0.27544094  1
  C  C376  1  0.39010763  0.15970398  0.26546329  1
  C  C377  1  0.40315606  0.14130657  0.24653143  1
  C  C378  1  0.39076308  0.11434987  0.23832028  1
  C  C379  1  0.40369386  0.18732554  0.27496543  1
  C  C380  1  0.39042375  0.20828558  0.28984565  1
  C  C381  1  0.28389897  0.01562863  0.16982903  1
  C  C382  1  0.23942413  0.02180117  0.14451866  1
  C  C383  1  0.25286544  0.01504584  0.12103747  1
  C  C384  1  0.23627622  0.01083212  0.09847546  1
  C  C385  1  0.20569322  0.01384017  0.09842906  1
  C  C386  1  0.19296700  0.02227377  0.12225634  1
  C  C387  1  0.20951673  0.02577690  0.14492817  1
  C  C388  1  0.18760215  0.01022384  0.07578134  1
  C  C389  1  0.15739885  0.00916165  0.07750270  1
  C  C390  1  0.65941645  0.47490926  0.59761222  1
  C  C391  1  0.68851008  0.47844745  0.58994014  1
  C  C392  1  0.69178172  0.48784035  0.56365535  1
  C  C393  1  0.66826386  0.49482229  0.54719722  1
  C  C394  1  0.63961580  0.49181194  0.55537943  1
  C  C395  1  0.63609943  0.48077335  0.58088473  1
  C  C396  1  0.71187943  0.47251190  0.60752668  1
  C  C397  1  0.73153504  0.46667505  0.62335917  1
  C  C398  1  0.75292387  0.46004564  0.64063664  1
  C  C399  1  0.77272441  0.45370176  0.65617539  1
  C  C400  1  0.79626954  0.44596589  0.67289445  1
  C  C401  1  0.82518688  0.44641914  0.66402163  1
  C  C402  1  0.84844745  0.43749443  0.67954813  1
  C  C403  1  0.84535051  0.42885577  0.70597252  1
  C  C404  1  0.81687081  0.42983782  0.71539032  1
  C  C405  1  0.79334832  0.43723300  0.69945189  1
  C  C406  1  0.57687659  0.45090212  0.39492989  1
  C  C407  1  0.59079610  0.42555944  0.40662197  1
  C  C408  1  0.59848704  0.42560252  0.43359963  1
  C  C409  1  0.59004452  0.44904760  0.44875885  1
  C  C410  1  0.57182972  0.47109417  0.43755229  1
  C  C411  1  0.56838970  0.47411361  0.41033064  1
  C  C412  1  0.59761026  0.40108216  0.39137547  1
  C  C413  1  0.60485968  0.38061091  0.37725300  1
  C  C414  1  0.61353877  0.35895988  0.36161888  1
  C  C415  1  0.62208760  0.33913703  0.34741415  1
  C  C416  1  0.63352266  0.31661821  0.33222814  1
  C  C417  1  0.65002506  0.29377564  0.34504225  1
  C  C418  1  0.66290693  0.27219804  0.33062092  1
  C  C419  1  0.65932817  0.27187670  0.30310850  1
  C  C420  1  0.64116619  0.29338737  0.29049629  1
  C  C421  1  0.62919210  0.31590612  0.30476350  1
  C  C422  1  0.38592336  0.57377455  0.58572006  1
  C  C423  1  0.38038378  0.60474085  0.58644789  1
  C  C424  1  0.39862451  0.62189723  0.56993280  1
  C  C425  1  0.42154397  0.60892485  0.55650607  1
  C  C426  1  0.43062920  0.57900752  0.56050920  1
  C  C427  1  0.41158886  0.56292951  0.57601940  1
  C  C428  1  0.35802209  0.61551160  0.60232528  1
  C  C429  1  0.33860584  0.62161921  0.61750570  1
  C  C430  1  0.31727662  0.62735575  0.63419880  1
  C  C431  1  0.29765867  0.63283516  0.64932232  1
  C  C432  1  0.27467262  0.64049613  0.66572253  1
  C  C433  1  0.26231396  0.66983007  0.66539757  1
  C  C434  1  0.23894631  0.67760737  0.68027082  1
  C  C435  1  0.22536497  0.65669348  0.69700870  1
  C  C436  1  0.23903667  0.62825509  0.69903552  1
  C  C437  1  0.26219730  0.62031070  0.68389755  1
  C  C438  1  0.57889358  0.69342700  0.44950515  1
  C  C439  1  0.59590631  0.68941156  0.42708214  1
  C  C440  1  0.60585778  0.65961966  0.42321727  1
  C  C441  1  0.59878153  0.63602918  0.43967102  1
  C  C442  1  0.58066840  0.64004459  0.46095420  1
  C  C443  1  0.57143705  0.66965078  0.46568412  1
  C  C444  1  0.60295701  0.71301331  0.40980848  1
  C  C445  1  0.60994903  0.73309862  0.39461196  1
  C  C446  1  0.61792902  0.75495163  0.37812026  1
  C  C447  1  0.62539892  0.77502780  0.36309981  1
  C  C448  1  0.63461486  0.79837643  0.34654375  1
  C  C449  1  0.65225459  0.79327475  0.32464906  1
  C  C450  1  0.66140490  0.81631941  0.30866062  1
  C  C451  1  0.65512963  0.84680792  0.31371216  1
  C  C452  1  0.63712200  0.85207158  0.33518120  1
  C  C453  1  0.62682043  0.82890821  0.35046530  1
  C  C454  1  0.45201894  0.41647360  0.42209005  1
  C  C455  1  0.46258389  0.38655523  0.42374347  1
  C  C456  1  0.48177485  0.38086838  0.44523434  1
  C  C457  1  0.49085397  0.40330461  0.46230942  1
  C  C458  1  0.48144694  0.43326364  0.45947157  1
  C  C459  1  0.46106961  0.43884661  0.43925422  1
  C  C460  1  0.45433247  0.36417287  0.40555169  1
  C  C461  1  0.44696231  0.34464193  0.38981986  1
  C  C462  1  0.43891732  0.32332364  0.37267574  1
  C  C463  1  0.43153649  0.30375164  0.35698137  1
  C  C464  1  0.42298848  0.28073264  0.33961111  1
  C  C465  1  0.43456725  0.25112097  0.34131335  1
  C  C466  1  0.42608204  0.22841715  0.32447629  1
  C  C467  1  0.40406264  0.23275846  0.30515020  1
  C  C468  1  0.39289549  0.26224952  0.30300110  1
  C  C469  1  0.40233428  0.28533286  0.31899474  1
  C  C470  1  0.43644419  0.45960408  0.60017583  1
  C  C471  1  0.41814322  0.48136224  0.61186355  1
  C  C472  1  0.42183509  0.51195560  0.60870746  1
  C  C473  1  0.44217539  0.52222174  0.59104073  1
  C  C474  1  0.46155422  0.49843897  0.58038891  1
  C  C475  1  0.45972132  0.46851817  0.58562610  1
  C  C476  1  0.39512165  0.47131437  0.62651316  1
  C  C477  1  0.37432752  0.46735478  0.64029733  1
  C  C478  1  0.35182306  0.46299781  0.65538993  1
  C  C479  1  0.33184876  0.45761816  0.66978558  1
  C  C480  1  0.31048978  0.44767989  0.68616884  1
  C  C481  1  0.29298341  0.46855863  0.69926463  1
  C  C482  1  0.27122685  0.45866266  0.71466094  1
  C  C483  1  0.26665341  0.42736528  0.71827939  1
  C  C484  1  0.28485003  0.40647331  0.70574989  1
  C  C485  1  0.30632751  0.41629774  0.69011501  1
  C  C486  1  0.46500451  0.61398817  0.39848358  1
  C  C487  1  0.46645937  0.64553475  0.40225809  1
  C  C488  1  0.47465571  0.65735031  0.42710769  1
  C  C489  1  0.48224885  0.63794258  0.44672587  1
  C  C490  1  0.48813488  0.60790165  0.44015792  1
  C  C491  1  0.47562420  0.59500784  0.41762241  1
  C  C492  1  0.45859308  0.66594207  0.38286681  1
  C  C493  1  0.45020894  0.68546427  0.36770300  1
  C  C494  1  0.43984366  0.70714659  0.35228919  1
  C  C495  1  0.43012578  0.72703662  0.33817012  1
  C  C496  1  0.41847726  0.74926439  0.32203476  1
  C  C497  1  0.42045663  0.77988178  0.32930744  1
  C  C498  1  0.40868512  0.80155808  0.31338003  1
  C  C499  1  0.39584187  0.79388874  0.28891212  1
  C  C500  1  0.39408946  0.76337557  0.28151908  1
  C  C501  1  0.40434281  0.74150232  0.29809236  1
  C  C502  1  0.64295846  0.61116608  0.58757517  1
  C  C503  1  0.64735764  0.59732569  0.61240243  1
  C  C504  1  0.62575924  0.57824584  0.62269331  1
  C  C505  1  0.60219181  0.57078267  0.60747960  1
  C  C506  1  0.60103615  0.58069417  0.58133028  1
  C  C507  1  0.61887478  0.60417651  0.57286752  1
  C  C508  1  0.67215435  0.60335770  0.62715685  1
  C  C509  1  0.69281588  0.61074502  0.64089403  1
  C  C510  1  0.71438388  0.62031856  0.65617638  1
  C  C511  1  0.73397138  0.62999301  0.67008141  1
  C  C512  1  0.75625527  0.64224218  0.68510611  1
  C  C513  1  0.76080331  0.63388038  0.71160769  1
  C  C514  1  0.78373371  0.64531096  0.72564662  1
  C  C515  1  0.80293150  0.66597524  0.71384915  1
  C  C516  1  0.79724118  0.67563568  0.68777742  1
  C  C517  1  0.77463085  0.66396270  0.67364650  1
  C  C518  1  0.93676824  0.04351456  0.04894844  1
  C  C519  1  0.91139772  0.05247918  0.05486061  1
  C  C520  1  0.03781817  0.10592796  0.96486120  1
  C  C521  1  0.04248788  0.13283124  0.95851697  1
  C  C522  1  0.11374123  0.02400949  0.04923305  1
  C  C523  1  0.13905636  0.01639762  0.05761963  1
  C  C524  1  0.02310751  0.94630082  0.95536648  1
  C  C525  1  0.01066446  0.92113583  0.95114028  1
  O  O526  1  0.03078940  0.07953510  0.97020202  1
  O  O527  1  0.03599486  -0.03101917  0.95900046  1
  O  O528  1  0.96002644  0.03388400  0.04473290  1
  O  O529  1  0.09030153  0.03144863  0.04198668  1
  O  O530  1  -0.00203127  0.36449765  0.75965809  1
  O  O531  1  0.07767886  0.28322717  0.84245487  1
  O  O532  1  0.12029316  0.38324460  0.77220729  1
  O  O533  1  0.73158614  0.99093798  0.24795233  1
  O  O534  1  0.73741903  0.13762030  0.23717115  1
  O  O535  1  0.78948261  0.05475564  0.15657136  1
  O  O536  1  0.95322741  0.69698779  0.77883580  1
  O  O537  1  0.02534288  0.78265719  0.85721965  1
  O  O538  1  0.07657590  0.71380631  0.75932127  1
  O  O539  1  0.33105486  0.94990600  0.25107051  1
  O  O540  1  0.25416418  0.02611955  0.16747316  1
  O  O541  1  0.35258861  0.07898487  0.23900877  1
