# generated using pymatgen
data_SiH166C252(N4O3)4
_symmetry_space_group_name_H-M   'P 1'
_cell_length_a   37.59005413
_cell_length_b   35.97511037
_cell_length_c   62.66125971
_cell_angle_alpha   89.43005721
_cell_angle_beta   91.44194412
_cell_angle_gamma   90.13487929
_symmetry_Int_Tables_number   1
_chemical_formula_structural   SiH166C252(N4O3)4
_chemical_formula_sum   'Si1 H166 C252 N16 O12'
_cell_volume   84706.00731248
_cell_formula_units_Z   1
loop_
 _symmetry_equiv_pos_site_id
 _symmetry_equiv_pos_as_xyz
  1  'x, y, z'
loop_
 _atom_site_type_symbol
 _atom_site_label
 _atom_site_symmetry_multiplicity
 _atom_site_fract_x
 _atom_site_fract_y
 _atom_site_fract_z
 _atom_site_occupancy
  Si  Si0  1  0.53205137  0.53705516  0.51398060  1
  H  H1  1  0.96355833  0.04260442  0.02255893  1
  H  H2  1  0.07654620  0.02206968  0.02399227  1
  H  H3  1  0.02422639  0.09481282  0.99326948  1
  H  H4  1  0.01793529  0.97508893  0.99428549  1
  H  H5  1  0.02042055  0.03659732  0.08244742  1
  H  H6  1  0.02207594  0.03480758  0.93451801  1
  H  H7  1  0.66471834  0.54841744  0.56153698  1
  H  H8  1  0.52533533  0.66456620  0.45684191  1
  H  H9  1  0.48897242  0.55994037  0.48121697  1
  H  H10  1  0.52595061  0.41472086  0.45387013  1
  H  H11  1  0.40809823  0.53730653  0.56741172  1
  H  H12  1  0.58878077  0.60631060  0.50471211  1
  H  H13  1  0.47406854  0.46771741  0.50614086  1
  H  H14  1  0.57092598  0.51369662  0.48046998  1
  H  H15  1  0.50831138  0.49543956  0.54751871  1
  H  H16  1  0.46682236  0.59827066  0.52022479  1
  H  H17  1  0.60180373  0.48052123  0.51928104  1
  H  H18  1  0.55476104  0.57492789  0.55024108  1
  H  H19  1  0.83546191  0.46287608  0.63296287  1
  H  H20  1  0.83375204  0.38080377  0.61870254  1
  H  H21  1  0.88089783  0.34072702  0.62802164  1
  H  H22  1  0.94086944  0.32775909  0.64239329  1
  H  H23  1  0.95022669  0.44102271  0.66351739  1
  H  H24  1  0.89030685  0.45476191  0.64856952  1
  H  H25  1  0.00006526  0.32998554  0.64730774  1
  H  H26  1  0.97692383  0.32173110  0.67120848  1
  H  H27  1  0.00088167  0.32594426  0.72654294  1
  H  H28  1  0.98993578  0.29710670  0.70476660  1
  H  H29  1  0.97666444  0.34439210  0.70435960  1
  H  H30  1  0.03711746  0.35963699  0.63421109  1
  H  H31  1  0.07266135  0.32742451  0.63358552  1
  H  H32  1  0.08118868  0.37561740  0.63592129  1
  H  H33  1  0.13043829  0.35318785  0.72821556  1
  H  H34  1  0.14167645  0.38445073  0.70740588  1
  H  H35  1  0.15243683  0.33685256  0.70576288  1
  H  H36  1  0.15197974  0.34982122  0.67258110  1
  H  H37  1  0.12621803  0.35927036  0.64894401  1
  H  H38  1  0.17685355  0.36810724  0.64520128  1
  H  H39  1  0.23326034  0.39233704  0.63396059  1
  H  H40  1  0.21232000  0.49662992  0.66611376  1
  H  H41  1  0.15395191  0.47108245  0.67739472  1
  H  H42  1  0.27093763  0.48621698  0.64628585  1
  H  H43  1  0.27810533  0.40429594  0.63101582  1
  H  H44  1  0.08405581  0.36050513  0.74077312  1
  H  H45  1  0.04090991  0.34116798  0.74174017  1
  H  H46  1  0.06956362  0.34824253  0.77241433  1
  H  H47  1  0.05536955  0.32749663  0.80870740  1
  H  H48  1  0.07367122  0.21338791  0.79051051  1
  H  H49  1  0.08732405  0.23472413  0.75408451  1
  H  H50  1  0.04749521  0.28009885  0.83487711  1
  H  H51  1  0.06969578  0.20033958  0.82251303  1
  H  H52  1  0.62958941  0.83094456  0.38556455  1
  H  H53  1  0.69368666  0.84780922  0.41598994  1
  H  H54  1  0.73197948  0.89724230  0.40859618  1
  H  H55  1  0.75167391  0.95068960  0.38740848  1
  H  H56  1  0.66439380  0.93345845  0.34274265  1
  H  H57  1  0.64437512  0.87944927  0.36382392  1
  H  H58  1  0.77179979  0.98567949  0.35971684  1
  H  H59  1  0.74054289  0.00909290  0.37543200  1
  H  H60  1  0.68829029  0.09048444  0.36870321  1
  H  H61  1  0.72468254  0.06922141  0.38211201  1
  H  H62  1  0.69031156  0.04153049  0.37063868  1
  H  H63  1  0.78439188  0.97441503  0.33033030  1
  H  H64  1  0.81990581  0.00620350  0.32688007  1
  H  H65  1  0.79337817  0.99179384  0.30471633  1
  H  H66  1  0.72671700  0.14609871  0.30064958  1
  H  H67  1  0.73546934  0.11217571  0.28112443  1
  H  H68  1  0.77079560  0.13527569  0.29458082  1
  H  H69  1  0.80068232  0.08691658  0.28688701  1
  H  H70  1  0.80796690  0.03848070  0.29092913  1
  H  H71  1  0.83198656  0.05921995  0.26409911  1
  H  H72  1  0.85589385  0.06282014  0.22846216  1
  H  H73  1  0.74998909  0.04816291  0.20099545  1
  H  H74  1  0.72576242  0.04462179  0.23747863  1
  H  H75  1  0.79911285  0.05440846  0.17744625  1
  H  H76  1  0.87303375  0.07302915  0.19769732  1
  H  H77  1  0.68792173  0.13492206  0.31943408  1
  H  H78  1  0.67973079  0.12284920  0.34623727  1
  H  H79  1  0.65538387  0.17308233  0.33268661  1
  H  H80  1  0.62098455  0.22094963  0.35094146  1
  H  H81  1  0.71725314  0.25610471  0.38493048  1
  H  H82  1  0.75082327  0.20673907  0.36730357  1
  H  H83  1  0.61795830  0.27273389  0.37540624  1
  H  H84  1  0.68983197  0.29371033  0.39809847  1
  H  H85  1  0.79695715  0.69008949  0.62041096  1
  H  H86  1  0.78948682  0.62213727  0.65115690  1
  H  H87  1  0.83896626  0.61069555  0.67584789  1
  H  H88  1  0.90030626  0.62362736  0.68844159  1
  H  H89  1  0.90800447  0.71326141  0.64222953  1
  H  H90  1  0.84711223  0.69953239  0.62872157  1
  H  H91  1  0.95716727  0.62994093  0.68896725  1
  H  H92  1  0.93431147  0.66282021  0.70442561  1
  H  H93  1  0.95452639  0.74850106  0.72789259  1
  H  H94  1  0.94466838  0.70108496  0.73148212  1
  H  H95  1  0.93120643  0.72432119  0.70758721  1
  H  H96  1  0.99163553  0.62787927  0.66586879  1
  H  H97  1  0.02694671  0.60951034  0.68187423  1
  H  H98  1  0.03573286  0.63639095  0.65871396  1
  H  H99  1  0.08282147  0.76698186  0.71421788  1
  H  H100  1  0.09488856  0.75142186  0.68853608  1
  H  H101  1  0.10603154  0.72492507  0.71163699  1
  H  H102  1  0.10706042  0.67841779  0.68949189  1
  H  H103  1  0.08190838  0.64953429  0.67184790  1
  H  H104  1  0.13850786  0.64569077  0.66684213  1
  H  H105  1  0.19451310  0.63814867  0.64861330  1
  H  H106  1  0.17164035  0.73665448  0.61068379  1
  H  H107  1  0.11501784  0.74403324  0.62936873  1
  H  H108  1  0.22536315  0.70347049  0.60365210  1
  H  H109  1  0.24359419  0.63361040  0.63103026  1
  H  H110  1  0.03622263  0.78902332  0.71776322  1
  H  H111  1  0.99290646  0.77944895  0.72657250  1
  H  H112  1  0.01774246  0.82916368  0.73886672  1
  H  H113  1  0.00268315  0.87336461  0.76687034  1
  H  H114  1  0.02633508  0.78938471  0.81506939  1
  H  H115  1  0.03798965  0.74402376  0.78664271  1
  H  H116  1  1.00162938  0.89062917  0.80332414  1
  H  H117  1  0.00023910  0.82645327  0.83634365  1
  H  H118  1  0.41575685  0.78483210  0.37495824  1
  H  H119  1  0.34355148  0.77429907  0.39758234  1
  H  H120  1  0.30095287  0.82608477  0.39151273  1
  H  H121  1  0.28867140  0.89000859  0.37898796  1
  H  H122  1  0.39634247  0.89994353  0.35676572  1
  H  H123  1  0.41008698  0.83710393  0.37088750  1
  H  H124  1  0.29052968  0.94925464  0.37500119  1
  H  H125  1  0.28290720  0.92486167  0.35084487  1
  H  H126  1  0.28762589  0.94629983  0.29616634  1
  H  H127  1  0.26103449  0.93525522  0.31805331  1
  H  H128  1  0.30647590  0.92238878  0.31839798  1
  H  H129  1  0.32430403  0.98534594  0.38757495  1
  H  H130  1  0.29274053  0.02155099  0.38918427  1
  H  H131  1  0.33870250  0.03171393  0.38708465  1
  H  H132  1  0.31589723  0.08127619  0.29431309  1
  H  H133  1  0.34666394  0.09416831  0.31498163  1
  H  H134  1  0.30104656  0.10506150  0.31680100  1
  H  H135  1  0.31242574  0.10600813  0.35107193  1
  H  H136  1  0.32509404  0.07964050  0.37419481  1
  H  H137  1  0.33076932  0.13776272  0.37873930  1
  H  H138  1  0.35385093  0.19667292  0.39192881  1
  H  H139  1  0.45357178  0.17622581  0.36110201  1
  H  H140  1  0.42967305  0.11641911  0.34780437  1
  H  H141  1  0.44842190  0.23211842  0.38252195  1
  H  H142  1  0.37526569  0.24721143  0.40236557  1
  H  H143  1  0.32210910  0.03225426  0.28142102  1
  H  H144  1  0.30425024  0.98681692  0.28142004  1
  H  H145  1  0.30931400  0.01349027  0.24992374  1
  H  H146  1  0.28809362  -0.00096463  0.21355888  1
  H  H147  1  0.17978736  0.02123551  0.23242239  1
  H  H148  1  0.20151845  0.03309282  0.26885433  1
  H  H149  1  0.23955723  0.99489567  0.18641974  1
  H  H150  1  0.16505249  0.00672610  0.20539457  1
  H  H151  1  0.91787477  0.01285684  0.06893412  1
  H  H152  1  0.91715209  0.08674968  0.16726246  1
  H  H153  1  0.96910788  0.07897384  0.07631927  1
  H  H154  1  0.84912889  0.04274908  0.15331265  1
  H  H155  1  0.99370925  0.13883543  0.94624886  1
  H  H156  1  0.08235990  0.16313711  0.85549051  1
  H  H157  1  0.06263581  0.09337450  0.94058316  1
  H  H158  1  0.02990821  0.22854746  0.86198112  1
  H  H159  1  0.05457588  0.00329520  0.09677300  1
  H  H160  1  0.20964624  0.00430532  0.14923887  1
  H  H161  1  0.10971683  0.01839893  0.06165848  1
  H  H162  1  0.13863475  0.99170377  0.17268057  1
  H  H163  1  0.05609531  0.98601799  0.92727573  1
  H  H164  1  0.96855132  0.86081576  0.86836935  1
  H  H165  1  1.00248779  0.94340177  0.95505789  1
  H  H166  1  0.02353371  0.90766339  0.84348246  1
  C  C167  1  0.98851399  0.03883042  0.03155079  1
  C  C168  1  0.02026083  0.03363478  0.02069028  1
  C  C169  1  0.05178025  0.02630321  0.03231872  1
  C  C170  1  0.05234038  0.02474011  0.05496757  1
  C  C171  1  0.02070175  0.03297637  0.06524105  1
  C  C172  1  0.98881385  0.03965217  0.05405669  1
  C  C173  1  0.02038985  0.03494121  0.99633483  1
  C  C174  1  0.02331407  0.06845709  0.98482662  1
  C  C175  1  0.02592304  0.06832547  0.96234897  1
  C  C176  1  0.02278207  0.03444232  0.95190344  1
  C  C177  1  0.01904074  1.00052411  0.96284695  1
  C  C178  1  0.01874503  0.00128078  0.98540943  1
  C  C179  1  0.61014815  0.56513621  0.55651092  1
  C  C180  1  0.50446728  0.61228394  0.46809548  1
  C  C181  1  0.50934217  0.58142733  0.48165761  1
  C  C182  1  0.53841932  0.57985116  0.49567822  1
  C  C183  1  0.56572222  0.60730757  0.49389805  1
  C  C184  1  0.56256633  0.63654810  0.47849703  1
  C  C185  1  0.53019036  0.64015516  0.46704417  1
  C  C186  1  0.49447103  0.44014969  0.47821137  1
  C  C187  1  0.49493823  0.46768151  0.49444528  1
  C  C188  1  0.52300899  0.49454212  0.49585519  1
  C  C189  1  0.55023451  0.49264206  0.48137943  1
  C  C190  1  0.55238702  0.46227971  0.46762970  1
  C  C191  1  0.52438228  0.43704398  0.46553439  1
  C  C192  1  0.43590259  0.57375409  0.54572452  1
  C  C193  1  0.43155750  0.54107137  0.55763932  1
  C  C194  1  0.45730243  0.51322168  0.55756987  1
  C  C195  1  0.48809636  0.51683002  0.54561217  1
  C  C196  1  0.49100414  0.54618333  0.53127262  1
  C  C197  1  0.46484151  0.57515284  0.53144004  1
  C  C198  1  0.63885779  0.54122450  0.55429902  1
  C  C199  1  0.63378849  0.50692793  0.54437693  1
  C  C200  1  0.60311488  0.50296417  0.53074991  1
  C  C201  1  0.57481633  0.52948597  0.53137803  1
  C  C202  1  0.57715361  0.55733016  0.54653346  1
  C  C203  1  0.82711549  0.43874895  0.62346193  1
  C  C204  1  0.84613882  0.40547487  0.62566533  1
  C  C205  1  0.88059005  0.39917745  0.63606203  1
  C  C206  1  0.89596189  0.36315488  0.63556044  1
  C  C207  1  0.92968317  0.35550284  0.64408240  1
  C  C208  1  0.94928894  0.38348904  0.65426097  1
  C  C209  1  0.93480590  0.41920106  0.65557470  1
  C  C210  1  0.90107233  0.42687757  0.64685319  1
  C  C211  1  -0.00329843  0.33992788  0.66370604  1
  C  C212  1  0.03162165  0.34066813  0.67598704  1
  C  C213  1  0.06304494  0.34888651  0.66504472  1
  C  C214  1  0.09507713  0.35203743  0.67706528  1
  C  C215  1  0.09650595  0.34931560  0.69954955  1
  C  C216  1  0.06473100  0.34142023  0.71016445  1
  C  C217  1  0.03248014  0.33592142  0.69851503  1
  C  C218  1  -0.00151603  0.32545549  0.70911963  1
  C  C219  1  0.06343939  0.35314696  0.64114284  1
  C  C220  1  0.13168447  0.35623541  0.71085638  1
  C  C221  1  0.12791780  0.36397755  0.66621380  1
  C  C222  1  0.16283049  0.41785523  0.66271334  1
  C  C223  1  0.18476813  0.39589622  0.65026933  1
  C  C224  1  0.21695380  0.40974103  0.64396017  1
  C  C225  1  0.22792640  0.44602025  0.64997800  1
  C  C226  1  0.20449685  0.46837074  0.66192520  1
  C  C227  1  0.17205427  0.45435059  0.66815348  1
  C  C228  1  0.26147498  0.45807132  0.64304555  1
  C  C229  1  0.28297725  0.43431802  0.63152866  1
  C  C230  1  0.06669644  0.33853658  0.73404883  1
  C  C231  1  0.07682253  0.29227159  0.76069637  1
  C  C232  1  0.06919157  0.31861517  0.77620658  1
  C  C233  1  0.06208100  0.30695451  0.79678806  1
  C  C234  1  0.06332612  0.26888793  0.80278474  1
  C  C235  1  0.07273083  0.24302918  0.78681620  1
  C  C236  1  0.08012342  0.25474544  0.76619878  1
  C  C237  1  0.05522955  0.25769244  0.82431869  1
  C  C238  1  0.05831004  0.22207505  0.83236480  1
  C  C239  1  0.64729565  0.82810837  0.39969338  1
  C  C240  1  0.67614384  0.85250171  0.40209813  1
  C  C241  1  0.68617766  0.88360562  0.38849929  1
  C  C242  1  0.71666870  0.90503248  0.39425838  1
  C  C243  1  0.72776810  0.93556491  0.38235365  1
  C  C244  1  0.70866050  0.94626769  0.36391638  1
  C  C245  1  0.67892457  0.92540145  0.35735720  1
  C  C246  1  0.66777412  0.89484524  0.36938063  1
  C  C247  1  0.74637505  0.00085086  0.35900458  1
  C  C248  1  0.74768760  0.03363798  0.34387055  1
  C  C249  1  0.76807072  0.03169070  0.32525052  1
  C  C250  1  0.76690819  0.06157425  0.31044756  1
  C  C251  1  0.74488904  0.09268846  0.31355033  1
  C  C252  1  0.72410682  0.09350746  0.33195596  1
  C  C253  1  0.72624791  0.06513150  0.34766824  1
  C  C254  1  0.70638097  0.06675954  0.36815104  1
  C  C255  1  0.79241056  -0.00052444  0.32160941  1
  C  C256  1  0.74423160  0.12297237  0.29679544  1
  C  C257  1  0.78745925  0.06017101  0.29032912  1
  C  C258  1  0.77709567  0.05286935  0.25297191  1
  C  C259  1  0.81367807  0.05748552  0.25038094  1
  C  C260  1  0.82728496  0.05924910  0.23005494  1
  C  C261  1  0.80479911  0.05628746  0.21164042  1
  C  C262  1  0.76782367  0.05084621  0.21487541  1
  C  C263  1  0.75415516  0.04895828  0.23521182  1
  C  C264  1  0.81870195  0.05771770  0.19046197  1
  C  C265  1  0.85383161  0.06354852  0.18546672  1
  C  C266  1  0.70098201  0.12672480  0.33471297  1
  C  C267  1  0.70469695  0.18589849  0.35006482  1
  C  C268  1  0.66849172  0.19047801  0.34466252  1
  C  C269  1  0.64941339  0.21788045  0.35442225  1
  C  C270  1  0.66622181  0.24219208  0.36926123  1
  C  C271  1  0.70339615  0.23793278  0.37364196  1
  C  C272  1  0.72245586  0.21036047  0.36380081  1
  C  C273  1  0.64630190  0.27008287  0.37932624  1
  C  C274  1  0.66132655  0.29461615  0.39404303  1
  C  C275  1  0.78677879  0.66373259  0.62666569  1
  C  C276  1  0.80369007  0.64515260  0.64369839  1
  C  C277  1  0.83832875  0.65394472  0.65142640  1
  C  C278  1  0.85409568  0.63316518  0.66855632  1
  C  C279  1  0.88824750  0.64074978  0.67577802  1
  C  C280  1  0.90721456  0.66973945  0.66616180  1
  C  C281  1  0.89249415  0.69086581  0.64932081  1
  C  C282  1  0.85837537  0.68312225  0.64192902  1
  C  C283  1  0.95419991  0.65985988  0.69195682  1
  C  C284  1  0.98861166  0.67885558  0.69717143  1
  C  C285  1  0.01911265  0.66833235  0.68600812  1
  C  C286  1  0.05051906  0.68951595  0.68861912  1
  C  C287  1  0.05064515  0.72146068  0.70168331  1
  C  C288  1  0.01896937  0.73282193  0.71141132  1
  C  C289  1  0.98759629  0.71144049  0.70956529  1
  C  C290  1  0.95306061  0.72191997  0.71959102  1
  C  C291  1  0.01827747  0.63409145  0.67244597  1
  C  C292  1  0.08503106  0.74242205  0.70417487  1
  C  C293  1  0.08425407  0.67792535  0.67804697  1
  C  C294  1  0.12345871  0.69618015  0.64982912  1
  C  C295  1  0.14577134  0.66611658  0.65472139  1
  C  C296  1  0.17747874  0.66147834  0.64395142  1
  C  C297  1  0.18806572  0.68618748  0.62744599  1
  C  C298  1  0.16456425  0.71641930  0.62292312  1
  C  C299  1  0.13282904  0.72103501  0.63358971  1
  C  C300  1  0.22038799  0.68169259  0.61544396  1
  C  C301  1  0.24563297  0.65320681  0.61753881  1
  C  C302  1  0.01938774  0.76717392  0.72473471  1
  C  C303  1  0.02705479  0.78333741  0.76112590  1
  C  C304  1  0.01811304  0.81996102  0.75548892  1
  C  C305  1  0.01069799  0.84515368  0.77128678  1
  C  C306  1  0.01322468  0.83512978  0.79319055  1
  C  C307  1  0.02351845  0.79801011  0.79840197  1
  C  C308  1  0.03041881  0.77251677  0.78254602  1
  C  C309  1  0.00674628  0.86242899  0.80924920  1
  C  C310  1  0.00466783  0.85504750  0.83079450  1
  C  C311  1  0.39715665  0.77386923  0.38663368  1
  C  C312  1  0.36384252  0.79003283  0.38917069  1
  C  C313  1  0.35595684  0.82624843  0.38156584  1
  C  C314  1  0.32173981  0.84219343  0.38382360  1
  C  C315  1  0.31476044  0.87780932  0.37657851  1
  C  C316  1  0.34182688  0.89804812  0.36671458  1
  C  C317  1  0.37589909  0.88335838  0.36447400  1
  C  C318  1  0.38316343  0.84791488  0.37202107  1
  C  C319  1  0.29976403  0.94613937  0.35858205  1
  C  C320  1  0.30089417  0.98204820  0.34648898  1
  C  C321  1  0.31255728  0.01407000  0.35748066  1
  C  C322  1  0.31812050  0.04705753  0.34568378  1
  C  C323  1  0.31365569  0.04728015  0.32316141  1
  C  C324  1  0.30482979  0.01397364  0.31245373  1
  C  C325  1  0.29766565  0.98103628  0.32396763  1
  C  C326  1  0.28779279  0.94472926  0.31360815  1
  C  C327  1  0.31740621  0.01309971  0.38137825  1
  C  C328  1  0.31963231  0.08345090  0.31163443  1
  C  C329  1  0.32866315  0.08229901  0.35689918  1
  C  C330  1  0.37839437  0.12364475  0.36181892  1
  C  C331  1  0.35762541  0.14615429  0.37456597  1
  C  C332  1  0.37117879  0.17950694  0.38244143  1
  C  C333  1  0.40638731  0.19154168  0.37835358  1
  C  C334  1  0.42667218  0.16790589  0.36518597  1
  C  C335  1  0.41323486  0.13446453  0.35738764  1
  C  C336  1  0.42138867  0.22538705  0.38717861  1
  C  C337  1  0.40417451  0.25008608  0.40061397  1
  C  C338  1  0.30160089  0.01443245  0.28855782  1
  C  C339  1  0.25632721  0.02252931  0.26183481  1
  C  C340  1  0.28084357  0.01386298  0.24617314  1
  C  C341  1  0.26888894  0.00671859  0.22550406  1
  C  C342  1  0.23228112  0.00900828  0.21959500  1
  C  C343  1  0.20825921  0.01885127  0.23582296  1
  C  C344  1  0.22023235  0.02580483  0.25653806  1
  C  C345  1  0.21962591  0.00198987  0.19806240  1
  C  C346  1  0.18391279  0.00287765  0.19263989  1
  C  C347  1  0.66175526  0.48176409  0.55006471  1
  C  C348  1  0.68862374  0.47341313  0.56133448  1
  C  C349  1  0.71684995  0.46490837  0.57370914  1
  C  C350  1  0.74306683  0.45783965  0.58573366  1
  C  C351  1  0.77105708  0.45025105  0.59841521  1
  C  C352  1  0.79731766  0.44313673  0.61029579  1
  C  C353  1  0.58293769  0.45681560  0.45528859  1
  C  C354  1  0.59674627  0.43323087  0.44376555  1
  C  C355  1  0.60896961  0.40588939  0.43231261  1
  C  C356  1  0.61695615  0.37698527  0.42295185  1
  C  C357  1  0.62895064  0.34778033  0.41294772  1
  C  C358  1  0.64172169  0.32114859  0.40352668  1
  C  C359  1  0.40875128  0.60007133  0.55008085  1
  C  C360  1  0.38221903  0.61049444  0.56012701  1
  C  C361  1  0.35410543  0.62114492  0.57109510  1
  C  C362  1  0.32790973  0.62994559  0.58188307  1
  C  C363  1  0.30004821  0.63927370  0.59336851  1
  C  C364  1  0.27391437  0.64798920  0.60415103  1
  C  C365  1  0.58733086  0.66434296  0.47250951  1
  C  C366  1  0.59831454  0.69108604  0.46167212  1
  C  C367  1  0.60960390  0.71945240  0.44978871  1
  C  C368  1  0.61938754  0.74576477  0.43813668  1
  C  C369  1  0.62976785  0.77371873  0.42569579  1
  C  C370  1  0.63948629  0.79991375  0.41402203  1
  C  C371  1  0.46832794  0.41280674  0.47279732  1
  C  C372  1  0.45814306  0.38664887  0.46103745  1
  C  C373  1  0.44778550  0.35891793  0.44837195  1
  C  C374  1  0.43934136  0.33297671  0.43609664  1
  C  C375  1  0.42965227  0.30514097  0.42339474  1
  C  C376  1  0.42021234  0.27891671  0.41165347  1
  C  C377  1  0.45128856  0.48154270  0.57075796  1
  C  C378  1  0.42697943  0.47060741  0.58232475  1
  C  C379  1  0.39867690  0.46364571  0.59347500  1
  C  C380  1  0.36963780  0.46136853  0.60238614  1
  C  C381  1  0.34011853  0.45396629  0.61236377  1
  C  C382  1  0.31246313  0.44685679  0.62178194  1
  C  C383  1  0.47322995  0.61459451  0.45509865  1
  C  C384  1  0.45705953  0.63522852  0.44217021  1
  C  C385  1  0.44162108  0.65932560  0.42906486  1
  C  C386  1  0.43043850  0.68664109  0.41873961  1
  C  C387  1  0.41856155  0.71561053  0.40783968  1
  C  C388  1  0.40734878  0.74285927  0.39761551  1
  C  C389  1  0.61551512  0.59561279  0.57040207  1
  C  C390  1  0.63978660  0.60958630  0.58153747  1
  C  C391  1  0.66764657  0.62189879  0.59245402  1
  C  C392  1  0.69699719  0.62990539  0.60071924  1
  C  C393  1  0.72731196  0.64066119  0.60961349  1
  C  C394  1  0.75574533  0.65077489  0.61798097  1
  C  C395  1  0.96078134  0.05314573  0.06831840  1
  C  C396  1  0.93321143  0.03424105  0.07714534  1
  C  C397  1  0.92314356  0.04251316  0.09852467  1
  C  C398  1  0.90995858  0.06062445  0.13665933  1
  C  C399  1  0.89932212  0.06950784  0.15759810  1
  C  C400  1  0.86648763  0.05790909  0.16456910  1
  C  C401  1  0.03678157  0.09898133  0.94782622  1
  C  C402  1  0.01708320  0.12722394  0.93897147  1
  C  C403  1  0.02709569  0.14288035  0.91877332  1
  C  C404  1  0.04929189  0.16530813  0.88268359  1
  C  C405  1  0.06112437  0.17879463  0.86274597  1
  C  C406  1  0.04834211  0.21107123  0.85330715  1
  C  C407  1  0.08346056  0.01781622  0.06862775  1
  C  C408  1  0.07977242  0.01148483  0.08997799  1
  C  C409  1  0.10835903  0.01072135  0.10534155  1
  C  C410  1  0.15721920  0.00647546  0.13428672  1
  C  C411  1  0.18129394  0.00332864  0.15222614  1
  C  C412  1  0.16722361  0.99780061  0.17217070  1
  C  C413  1  0.01721030  0.96768574  0.94960899  1
  C  C414  1  0.03320101  0.96824616  0.93022037  1
  C  C415  1  0.02213043  0.94554844  0.91285032  1
  C  C416  1  0.99993256  0.90360608  0.88323267  1
  C  C417  1  0.99050795  0.88008517  0.86598333  1
  C  C418  1  0.00717542  0.88303208  0.84663106  1
  N  N419  1  0.89351848  0.02731739  0.10740282  1
  N  N420  1  0.88596771  0.03866606  0.12600836  1
  N  N421  1  0.94146024  0.07286080  0.12853042  1
  N  N422  1  0.94653418  0.06560991  0.10892405  1
  N  N423  1  0.00999188  0.17252365  0.90933960  1
  N  N424  1  0.02227768  0.18455817  0.89163199  1
  N  N425  1  0.06483674  0.13423027  0.89155432  1
  N  N426  1  0.05487000  0.12451751  0.91009049  1
  N  N427  1  0.09812306  0.00767256  0.12605834  1
  N  N428  1  0.12259515  0.00455844  0.14029488  1
  N  N429  1  0.16760258  0.01127188  0.11371664  1
  N  N430  1  0.14284598  0.01427875  0.09922723  1
  N  N431  1  0.03950882  0.94762965  0.89388810  1
  N  N432  1  0.02777147  0.92667219  0.87893182  1
  N  N433  1  0.98178783  0.90238731  0.90198638  1
  N  N434  1  0.99295091  0.92419713  0.91675779  1
  O  O435  1  0.98261557  0.37782004  0.66276273  1
  O  O436  1  0.08147078  0.30239646  0.74001068  1
  O  O437  1  0.13191536  0.40379193  0.66993616  1
  O  O438  1  0.71817452  0.97576817  0.35142645  1
  O  O439  1  0.72338348  0.15721074  0.34215811  1
  O  O440  1  0.76266829  0.05219563  0.27264138  1
  O  O441  1  0.94082822  0.67828304  0.67250997  1
  O  O442  1  0.03320805  0.75755062  0.74598955  1
  O  O443  1  0.09258389  0.70265491  0.66017691  1
  O  O444  1  0.33649550  0.93303057  0.35929079  1
  O  O445  1  0.26659129  0.02865856  0.28243439  1
  O  O446  1  0.36601655  0.09117880  0.35334105  1
