# generated using pymatgen
data_Mn3H272C276S4(N5O8)2
_symmetry_space_group_name_H-M   'P 1'
_cell_length_a   65.90199112
_cell_length_b   69.80007918
_cell_length_c   41.45916810
_cell_angle_alpha   90.65748945
_cell_angle_beta   89.29707752
_cell_angle_gamma   92.89635856
_symmetry_Int_Tables_number   1
_chemical_formula_structural   Mn3H272C276S4(N5O8)2
_chemical_formula_sum   'Mn3 H272 C276 S4 N10 O16'
_cell_volume   190441.48414821
_cell_formula_units_Z   1
loop_
 _symmetry_equiv_pos_site_id
 _symmetry_equiv_pos_as_xyz
  1  'x, y, z'
loop_
 _atom_site_type_symbol
 _atom_site_label
 _atom_site_symmetry_multiplicity
 _atom_site_fract_x
 _atom_site_fract_y
 _atom_site_fract_z
 _atom_site_occupancy
  Mn  Mn0  1  0.00235538  0.50057986  0.00290351  1
  Mn  Mn1  1  0.50695389  -0.00035975  0.00174000  1
  Mn  Mn2  1  0.50221646  0.50228822  0.50282772  1
  H  H3  1  0.05500148  0.51780076  0.91533812  1
  H  H4  1  0.03251328  0.45887078  0.90952315  1
  H  H5  1  0.03416511  0.52158091  0.96466675  1
  H  H6  1  0.00986498  0.46547763  0.95585312  1
  H  H7  1  0.94613620  0.49049735  0.91417445  1
  H  H8  1  0.98190327  0.54347586  0.91095448  1
  H  H9  1  0.96824845  0.48050258  0.95863069  1
  H  H10  1  0.99838646  0.53442537  0.96191251  1
  H  H11  1  0.04789567  0.51207685  0.03175942  1
  H  H12  1  0.06665957  0.50250775  0.08029949  1
  H  H13  1  0.01625581  0.46242322  0.10101174  1
  H  H14  1  -0.00178240  0.47565918  0.05526975  1
  H  H15  1  0.98044655  0.46114035  0.02675762  1
  H  H16  1  0.95864403  0.49000173  0.01953039  1
  H  H17  1  0.93598230  0.49164935  0.06750452  1
  H  H18  1  0.97776381  0.53547488  0.10642458  1
  H  H19  1  1.00092914  0.52899948  0.06075066  1
  H  H20  1  0.02234552  0.54176501  0.03532121  1
  H  H21  1  0.48768213  0.05035003  0.91597871  1
  H  H22  1  0.54814636  0.03008185  0.90913906  1
  H  H23  1  0.48082960  0.02770644  0.96124709  1
  H  H24  1  0.53927553  0.00807392  0.95442819  1
  H  H25  1  0.50964290  0.94854691  0.90914305  1
  H  H26  1  0.45241091  0.97525449  0.92368647  1
  H  H27  1  0.52206357  0.96577864  0.95816154  1
  H  H28  1  0.46704258  0.99151509  0.97227885  1
  H  H29  1  0.49314372  0.04017639  0.02010490  1
  H  H30  1  0.49425843  0.06157651  0.06814925  1
  H  H31  1  0.53935278  0.02585665  0.10769265  1
  H  H32  1  0.53335952  0.00378643  0.06155046  1
  H  H33  1  0.54672604  0.98462309  0.02932524  1
  H  H34  1  0.51521358  0.95820537  0.03047951  1
  H  H35  1  0.50281853  0.93960464  0.07848760  1
  H  H36  1  0.46457746  0.98650204  0.10149823  1
  H  H37  1  0.48020918  1.00412244  0.05560014  1
  H  H38  1  0.45480843  0.02190394  0.03269088  1
  H  H39  1  0.48487774  0.46049406  0.52183040  1
  H  H40  1  0.53660386  0.48290082  0.47475729  1
  H  H41  1  0.55194532  0.45079877  0.47343659  1
  H  H42  1  0.49784982  0.42765968  0.52112511  1
  H  H43  1  0.51782147  0.54399120  0.48256232  1
  H  H44  1  0.46699311  0.52081399  0.53077828  1
  H  H45  1  0.45043901  0.55234129  0.53082106  1
  H  H46  1  0.50383413  0.57644023  0.48223783  1
  H  H47  1  0.14424264  0.44152947  0.30680165  1
  H  H48  1  0.14745501  0.39829670  0.29578400  1
  H  H49  1  0.15792670  0.38168412  0.34606223  1
  H  H50  1  0.17782130  0.38184670  0.39565555  1
  H  H51  1  0.19314645  0.44221872  0.38385947  1
  H  H52  1  0.17428480  0.44170504  0.33264113  1
  H  H53  1  0.20354402  0.38558634  0.43219558  1
  H  H54  1  0.18120316  0.39403287  0.45034347  1
  H  H55  1  0.17137071  0.41982655  0.52293842  1
  H  H56  1  0.17042700  0.39669224  0.50538077  1
  H  H57  1  0.17096537  0.41724518  0.48061277  1
  H  H58  1  0.23212072  0.39598700  0.42069153  1
  H  H59  1  0.24423976  0.37984887  0.44598461  1
  H  H60  1  0.25588811  0.40261680  0.43732656  1
  H  H61  1  0.23892675  0.43034589  0.57362930  1
  H  H62  1  0.25831356  0.43489817  0.54419514  1
  H  H63  1  0.25588094  0.41248304  0.56354126  1
  H  H64  1  0.27161209  0.40370967  0.52096686  1
  H  H65  1  0.27040740  0.39768779  0.47935402  1
  H  H66  1  0.30225766  0.40082520  0.49745766  1
  H  H67  1  0.33879111  0.40895981  0.49940578  1
  H  H68  1  0.32745659  0.46835027  0.48090834  1
  H  H69  1  0.29042069  0.46001876  0.47969294  1
  H  H70  1  0.36055946  0.46093655  0.48769444  1
  H  H71  1  0.37277457  0.41955630  0.50236203  1
  H  H72  1  0.21160182  0.43962352  0.56555727  1
  H  H73  1  0.18707282  0.43130686  0.55383407  1
  H  H74  1  0.19130873  0.44929097  0.60067634  1
  H  H75  1  0.17103306  0.45752745  0.64833077  1
  H  H76  1  0.17073852  0.39882566  0.67995762  1
  H  H77  1  0.19179233  0.39067393  0.63241159  1
  H  H78  1  0.14998791  0.44861715  0.69298680  1
  H  H79  1  0.15619018  0.41041962  0.72631954  1
  H  H80  1  0.57084680  0.14791952  0.28978303  1
  H  H81  1  0.61602547  0.14136458  0.30336418  1
  H  H82  1  0.63117232  0.15625284  0.34851038  1
  H  H83  1  0.63008381  0.17529058  0.39847412  1
  H  H84  1  0.56676704  0.18465344  0.38272993  1
  H  H85  1  0.56773400  0.16537098  0.33263183  1
  H  H86  1  0.62629927  0.19892950  0.43329970  1
  H  H87  1  0.61663084  0.17729251  0.45081321  1
  H  H88  1  0.59063954  0.16623980  0.52393802  1
  H  H89  1  0.61494718  0.16743265  0.50565016  1
  H  H90  1  0.59291986  0.16582379  0.48155344  1
  H  H91  1  0.61518119  0.22485238  0.42199171  1
  H  H92  1  0.63262419  0.23786569  0.44722441  1
  H  H93  1  0.60869921  0.24698183  0.43888350  1
  H  H94  1  0.57918579  0.22964251  0.57514174  1
  H  H95  1  0.57455965  0.24729140  0.54599950  1
  H  H96  1  0.59826470  0.24721499  0.56537436  1
  H  H97  1  0.60694318  0.26270277  0.52258105  1
  H  H98  1  0.61384089  0.26160087  0.48116476  1
  H  H99  1  0.61071853  0.29175666  0.49858344  1
  H  H100  1  0.60256411  0.32561186  0.50020948  1
  H  H101  1  0.53967879  0.30948445  0.48059159  1
  H  H102  1  0.54797617  0.27518973  0.47965988  1
  H  H103  1  0.54785651  0.34145287  0.48765666  1
  H  H104  1  0.59160006  0.35683529  0.50409649  1
  H  H105  1  0.57032953  0.20304969  0.56798686  1
  H  H106  1  0.57816933  0.18048214  0.55475087  1
  H  H107  1  0.55975861  0.18294012  0.60129645  1
  H  H108  1  0.55030535  0.16349125  0.64837050  1
  H  H109  1  0.61249011  0.16724786  0.68025806  1
  H  H110  1  0.62191266  0.18729421  0.63308686  1
  H  H111  1  0.55771345  0.14691832  0.69421042  1
  H  H112  1  0.60011780  0.14947044  0.72432976  1
  H  H113  1  0.85349753  0.58588875  0.71805018  1
  H  H114  1  0.85013281  0.54396011  0.69382720  1
  H  H115  1  0.83906870  0.53326894  0.64861884  1
  H  H116  1  0.82007877  0.53529667  0.59869285  1
  H  H117  1  0.81147328  0.59525483  0.61834674  1
  H  H118  1  0.83114899  0.59337531  0.66868725  1
  H  H119  1  0.79592675  0.53891482  0.56763691  1
  H  H120  1  0.81906746  0.54712649  0.54916285  1
  H  H121  1  0.83178111  0.57132918  0.47684220  1
  H  H122  1  0.83021067  0.54887464  0.49600901  1
  H  H123  1  0.83163998  0.57029624  0.51933244  1
  H  H124  1  0.76904199  0.54885860  0.57942040  1
  H  H125  1  0.75589856  0.53226223  0.55361255  1
  H  H126  1  0.74552273  0.55452101  0.56367316  1
  H  H127  1  0.76494794  0.58300548  0.42752536  1
  H  H128  1  0.74590441  0.58773035  0.45686129  1
  H  H129  1  0.74636992  0.56504268  0.43766595  1
  H  H130  1  0.73009424  0.55641949  0.48087548  1
  H  H131  1  0.73082147  0.55240080  0.52317225  1
  H  H132  1  0.70245414  0.55043755  0.50508156  1
  H  H133  1  0.66582833  0.55163835  0.51045915  1
  H  H134  1  0.67128453  0.61358098  0.51832972  1
  H  H135  1  0.70871188  0.61186387  0.51977609  1
  H  H136  1  0.63528410  0.59475188  0.51702299  1
  H  H137  1  0.64119429  0.55575105  0.48338608  1
  H  H138  1  0.79313799  0.59214874  0.43533609  1
  H  H139  1  0.81691171  0.58442787  0.44756279  1
  H  H140  1  0.81475028  0.60138448  0.40099363  1
  H  H141  1  0.83594227  0.60910843  0.35351715  1
  H  H142  1  0.83046844  0.54977617  0.32229802  1
  H  H143  1  0.80912033  0.54216666  0.37004610  1
  H  H144  1  0.85428112  0.60032600  0.30678592  1
  H  H145  1  0.84922535  0.55817167  0.28302413  1
  H  H146  1  0.40560328  0.85764099  0.71073727  1
  H  H147  1  0.45067071  0.86428179  0.69277496  1
  H  H148  1  0.46546915  0.84836557  0.64911100  1
  H  H149  1  0.46335435  0.82800938  0.60051951  1
  H  H150  1  0.39963718  0.81540755  0.61996353  1
  H  H151  1  0.40181593  0.83564899  0.66931927  1
  H  H152  1  0.45884239  0.80473019  0.56721257  1
  H  H153  1  0.44981715  0.82576248  0.55006593  1
  H  H154  1  0.42468759  0.83516364  0.47752959  1
  H  H155  1  0.44836608  0.83554859  0.49687027  1
  H  H156  1  0.42562261  0.83563090  0.52004519  1
  H  H157  1  0.44770139  0.77831877  0.57894914  1
  H  H158  1  0.46484893  0.76699209  0.55258545  1
  H  H159  1  0.44105810  0.75557674  0.56263936  1
  H  H160  1  0.41164181  0.77079499  0.42681508  1
  H  H161  1  0.40642081  0.75244094  0.45562374  1
  H  H162  1  0.43051288  0.75494069  0.43665592  1
  H  H163  1  0.43970450  0.74052325  0.47924364  1
  H  H164  1  0.44428044  0.74193532  0.52139993  1
  H  H165  1  0.44638407  0.71502762  0.50388721  1
  H  H166  1  0.44497724  0.68038265  0.51011836  1
  H  H167  1  0.37939393  0.67966584  0.51780947  1
  H  H168  1  0.38137103  0.71522241  0.51910412  1
  H  H169  1  0.39948777  0.64737477  0.51613235  1
  H  H170  1  0.44056050  0.65684369  0.48184212  1
  H  H171  1  0.40108766  0.79681188  0.43635509  1
  H  H172  1  0.40980841  0.81996060  0.44905071  1
  H  H173  1  0.39141431  0.81710385  0.40118931  1
  H  H174  1  0.38412263  0.83662882  0.35427285  1
  H  H175  1  0.44638743  0.83379690  0.32198650  1
  H  H176  1  0.45413396  0.81534238  0.37065615  1
  H  H177  1  0.39628163  0.85130541  0.30010224  1
  H  H178  1  0.44061480  0.86536982  0.30663386  1
  H  H179  1  0.07627835  0.49644667  0.88953219  1
  H  H180  1  0.05922530  0.47545995  0.84676317  1
  H  H181  1  0.09748223  0.48217141  0.85142318  1
  H  H182  1  0.11674138  0.43061136  0.71378652  1
  H  H183  1  0.13212006  0.45045795  0.75996422  1
  H  H184  1  0.09429196  0.44352037  0.75395111  1
  H  H185  1  0.11943051  0.40962030  0.73647649  1
  H  H186  1  0.13383848  0.42938544  0.78252493  1
  H  H187  1  0.09592848  0.42242858  0.77684762  1
  H  H188  1  0.07823239  0.47635280  0.91436820  1
  H  H189  1  0.06094957  0.45527039  0.87159205  1
  H  H190  1  0.09889802  0.46136587  0.87505495  1
  H  H191  1  0.51620768  0.07495333  0.90573797  1
  H  H192  1  0.52200866  0.06278707  0.84954680  1
  H  H193  1  0.53287870  0.09666631  0.86770423  1
  H  H194  1  0.56830181  0.11590953  0.71405856  1
  H  H195  1  0.56225341  0.13137596  0.77069482  1
  H  H196  1  0.55202035  0.09745107  0.75439380  1
  H  H197  1  0.59377191  0.11368398  0.72544861  1
  H  H198  1  0.58668462  0.12439730  0.78074667  1
  H  H199  1  0.57647487  0.09004170  0.76402765  1
  H  H200  1  0.54094110  0.06895121  0.91663575  1
  H  H201  1  0.54603027  0.05497182  0.86008416  1
  H  H202  1  0.55705167  0.08866525  0.87749868  1
  H  H203  1  0.93082705  0.50172508  0.12135081  1
  H  H204  1  0.92547958  0.53765348  0.11558184  1
  H  H205  1  0.90926919  0.51702892  0.15944423  1
  H  H206  1  0.85878721  0.58647245  0.23806331  1
  H  H207  1  0.86894986  0.55214018  0.23161175  1
  H  H208  1  0.88177526  0.57751469  0.19203580  1
  H  H209  1  0.87944704  0.59136719  0.26379351  1
  H  H210  1  0.89015158  0.55734038  0.25611362  1
  H  H211  1  0.90313388  0.58272358  0.21662418  1
  H  H212  1  0.95313848  0.50762840  0.14318283  1
  H  H213  1  0.94681678  0.54262724  0.13993738  1
  H  H214  1  0.93065778  0.52196086  0.18407123  1
  H  H215  1  0.46499167  0.96240816  0.13673938  1
  H  H216  1  0.48464136  0.93317777  0.14767239  1
  H  H217  1  0.45066454  0.94218235  0.17244410  1
  H  H218  1  0.44631199  0.85642856  0.25150084  1
  H  H219  1  0.43076152  0.89269675  0.25861675  1
  H  H220  1  0.46174546  0.88338064  0.22887271  1
  H  H221  1  0.42055844  0.85071294  0.24341609  1
  H  H222  1  0.41494383  0.88222901  0.22868278  1
  H  H223  1  0.44689848  0.87034587  0.19994215  1
  H  H224  1  0.45182971  0.95010558  0.10551631  1
  H  H225  1  0.47150618  0.92056989  0.11640985  1
  H  H226  1  0.43781731  0.92887060  0.14175948  1
  H  H227  1  0.50522038  0.06841840  0.12081132  1
  H  H228  1  0.54341490  0.07598457  0.11652872  1
  H  H229  1  0.52070208  0.08923669  0.16023920  1
  H  H230  1  0.59667143  0.14079350  0.23810449  1
  H  H231  1  0.55981320  0.13002478  0.23527414  1
  H  H232  1  0.58511630  0.11939753  0.19294881  1
  H  H233  1  0.60176087  0.12050300  0.26081887  1
  H  H234  1  0.56439617  0.10975667  0.25842634  1
  H  H235  1  0.58998133  0.09918083  0.21644842  1
  H  H236  1  0.50995129  0.04783000  0.14325727  1
  H  H237  1  0.54753598  0.05594984  0.14053270  1
  H  H238  1  0.52502813  0.06919482  0.18449889  1
  H  H239  1  0.04250665  0.48031450  0.14622648  1
  H  H240  1  0.07949569  0.48690090  0.14226347  1
  H  H241  1  0.06268781  0.46298864  0.18251262  1
  H  H242  1  0.15408262  0.44495766  0.25054837  1
  H  H243  1  0.11336490  0.44076358  0.26033758  1
  H  H244  1  0.13201283  0.46147123  0.21965382  1
  H  H245  1  0.15196356  0.42009597  0.24240960  1
  H  H246  1  0.11607086  0.42027264  0.23591700  1
  H  H247  1  0.13591301  0.44120969  0.19465964  1
  H  H248  1  0.04442695  0.45801910  0.12684509  1
  H  H249  1  0.08245270  0.46762055  0.11480800  1
  H  H250  1  0.06736532  0.44415413  0.15498527  1
  H  H251  1  0.92833935  0.52849034  0.91962696  1
  H  H252  1  0.92410935  0.51576882  0.86559296  1
  H  H253  1  0.91059925  0.54864016  0.88166327  1
  H  H254  1  0.87105017  0.54663263  0.73157558  1
  H  H255  1  0.86767231  0.56928780  0.78195173  1
  H  H256  1  0.88307543  0.53741610  0.77561400  1
  H  H257  1  0.88838243  0.56390373  0.71546993  1
  H  H258  1  0.89008771  0.58124297  0.76702237  1
  H  H259  1  0.90529722  0.54830049  0.75799160  1
  H  H260  1  0.94640874  0.54645090  0.90704098  1
  H  H261  1  0.94647772  0.52778417  0.85090910  1
  H  H262  1  0.93282171  0.55977448  0.86443697  1
  H  H263  1  0.45650181  0.96052699  0.87710597  1
  H  H264  1  0.46822054  0.92482600  0.88639012  1
  H  H265  1  0.44032386  0.93593807  0.85218272  1
  H  H266  1  0.41945765  0.85221166  0.76576021  1
  H  H267  1  0.41501474  0.88585133  0.77250631  1
  H  H268  1  0.44162728  0.87145278  0.80849775  1
  H  H269  1  0.44442679  0.85583296  0.75051379  1
  H  H270  1  0.43450721  0.89259275  0.74490558  1
  H  H271  1  0.46068685  0.87919234  0.78045350  1
  H  H272  1  0.48065988  0.96468751  0.85950797  1
  H  H273  1  0.48659203  0.93085921  0.85645065  1
  H  H274  1  0.45797969  0.94417633  0.82233987  1
  C  C275  1  0.04879774  0.48690496  0.91256099  1
  C  C276  1  0.04643985  0.50535553  0.92513326  1
  C  C277  1  0.03399400  0.47278693  0.92178674  1
  C  C278  1  0.03401569  0.50778566  0.95189990  1
  C  C279  1  0.02100184  0.47652279  0.94757469  1
  C  C280  1  0.95905736  0.51997183  0.91456945  1
  C  C281  1  0.95726903  0.50081270  0.92462888  1
  C  C282  1  0.97710520  0.53014316  0.92295625  1
  C  C283  1  0.96962084  0.49517319  0.94942907  1
  C  C284  1  0.98725021  0.52464550  0.95015438  1
  C  C285  1  0.04136445  0.50106812  0.04786613  1
  C  C286  1  0.05193478  0.49541129  0.07491888  1
  C  C287  1  0.04325059  0.48092613  0.09474886  1
  C  C288  1  0.02390916  0.47352867  0.08636013  1
  C  C289  1  0.01388309  0.48048553  0.06021871  1
  C  C290  1  0.96274929  0.49939879  0.03989077  1
  C  C291  1  0.95010559  0.50049370  0.06680528  1
  C  C292  1  0.95548851  0.51280772  0.09256366  1
  C  C293  1  0.97323896  0.52449293  0.08859546  1
  C  C294  1  0.98595623  0.52159893  0.06219209  1
  C  C295  1  0.51998948  0.04512767  0.91396462  1
  C  C296  1  0.49993635  0.04206466  0.92518660  1
  C  C297  1  0.53344255  0.03091003  0.92131895  1
  C  C298  1  0.49591687  0.02912108  0.94993147  1
  C  C299  1  0.52845690  0.01825529  0.94612245  1
  C  C300  1  0.48014191  0.96146863  0.91076519  1
  C  C301  1  0.49962768  0.95809908  0.92199022  1
  C  C302  1  0.46804045  0.97285774  0.93030419  1
  C  C303  1  0.50657154  0.96743095  0.94992078  1
  C  C304  1  0.47594849  0.98165065  0.95785986  1
  C  C305  1  0.50318097  0.03732072  0.04009668  1
  C  C306  1  0.50379996  0.04923686  0.06722084  1
  C  C307  1  0.51658939  0.04548471  0.09286511  1
  C  C308  1  0.52852566  0.02951097  0.08930455  1
  C  C309  1  0.52602856  0.01745340  0.06259214  1
  C  C310  1  0.50393924  0.96391849  0.04703772  1
  C  C311  1  0.49651206  0.95338941  0.07342996  1
  C  C312  1  0.48118098  0.96097498  0.09288978  1
  C  C313  1  0.47591741  0.97967486  0.08650129  1
  C  C314  1  0.48433037  0.98953159  0.06054066  1
  C  C315  1  0.54536948  0.51841742  0.49179622  1
  C  C316  1  0.50265677  0.54620520  0.49247338  1
  C  C317  1  0.47430066  0.53339850  0.51922303  1
  C  C318  1  0.46531161  0.55086619  0.51941042  1
  C  C319  1  0.47518566  0.56715297  0.50492318  1
  C  C320  1  0.49482467  0.56432120  0.49222026  1
  C  C321  1  0.46038504  0.48651786  0.51215585  1
  C  C322  1  0.49997474  0.45802385  0.51187032  1
  C  C323  1  0.52878597  0.47035813  0.48571754  1
  C  C324  1  0.53721230  0.45261715  0.48510190  1
  C  C325  1  0.52695342  0.43654579  0.49966661  1
  C  C326  1  0.50727190  0.43970734  0.51178693  1
  C  C327  1  0.14666244  0.42875430  0.29199381  1
  C  C328  1  0.15193749  0.41228184  0.30632577  1
  C  C329  1  0.16342709  0.41198428  0.33613199  1
  C  C330  1  0.16542802  0.39511810  0.35427669  1
  C  C331  1  0.17658051  0.39522607  0.38262958  1
  C  C332  1  0.18614462  0.41234925  0.39390598  1
  C  C333  1  0.18518729  0.42901872  0.37563528  1
  C  C334  1  0.17418514  0.42878216  0.34714199  1
  C  C335  1  0.19711783  0.39813261  0.44421584  1
  C  C336  1  0.20947216  0.40429888  0.47340052  1
  C  C337  1  0.23082067  0.40312129  0.47185371  1
  C  C338  1  0.24246229  0.40868959  0.49907243  1
  C  C339  1  0.23328601  0.41662040  0.52691205  1
  C  C340  1  0.21191670  0.41777624  0.52827274  1
  C  C341  1  0.19992678  0.41139878  0.50171305  1
  C  C342  1  0.17715109  0.41139737  0.50274458  1
  C  C343  1  0.24118136  0.39510603  0.44255127  1
  C  C344  1  0.24709833  0.42396615  0.55338414  1
  C  C345  1  0.26522171  0.40787448  0.49776469  1
  C  C346  1  0.29403039  0.43016859  0.48978699  1
  C  C347  1  0.30766142  0.41574686  0.49461160  1
  C  C348  1  0.32843177  0.42036654  0.49533051  1
  C  C349  1  0.33617208  0.43953130  0.49088369  1
  C  C350  1  0.32187902  0.45360761  0.48484907  1
  C  C351  1  0.30120310  0.44903675  0.48422909  1
  C  C352  1  0.35730848  0.44568445  0.49190276  1
  C  C353  1  0.37416460  0.43497273  0.49781563  1
  C  C354  1  0.20251413  0.42668915  0.55792733  1
  C  C355  1  0.19147951  0.41897244  0.61203026  1
  C  C356  1  0.18642038  0.43798802  0.61739126  1
  C  C357  1  0.17518190  0.44273136  0.64464673  1
  C  C358  1  0.16861379  0.42882415  0.66753512  1
  C  C359  1  0.17512360  0.40995537  0.66263303  1
  C  C360  1  0.18676921  0.40522942  0.63566345  1
  C  C361  1  0.15514045  0.43398871  0.69399726  1
  C  C362  1  0.14726462  0.42184926  0.71689827  1
  C  C363  1  0.58580500  0.14200919  0.28664020  1
  C  C364  1  0.60093656  0.14680520  0.30768205  1
  C  C365  1  0.59951862  0.15865706  0.33675932  1
  C  C366  1  0.61686488  0.16216261  0.35615492  1
  C  C367  1  0.61622506  0.17288746  0.38458103  1
  C  C368  1  0.59799359  0.18058664  0.39468786  1
  C  C369  1  0.58079383  0.17812152  0.37530960  1
  C  C370  1  0.58145894  0.16723158  0.34695853  1
  C  C371  1  0.61280580  0.19205194  0.44520834  1
  C  C372  1  0.60662603  0.20337651  0.47467355  1
  C  C373  1  0.60780274  0.22364049  0.47320940  1
  C  C374  1  0.60184040  0.23442509  0.50043251  1
  C  C375  1  0.59376068  0.22520459  0.52838832  1
  C  C376  1  0.59282086  0.20491581  0.52974930  1
  C  C377  1  0.59942457  0.19390800  0.50301911  1
  C  C378  1  0.59938387  0.17239119  0.50364144  1
  C  C379  1  0.61636927  0.23374691  0.44390066  1
  C  C380  1  0.58603769  0.23778023  0.55504237  1
  C  C381  1  0.60274428  0.25601986  0.49921467  1
  C  C382  1  0.57958853  0.28126600  0.49051344  1
  C  C383  1  0.59499632  0.29550705  0.49550963  1
  C  C384  1  0.59036760  0.31474338  0.49611768  1
  C  C385  1  0.57018773  0.32030543  0.49144029  1
  C  C386  1  0.55517024  0.30550965  0.48491927  1
  C  C387  1  0.55974911  0.28636266  0.48444908  1
  C  C388  1  0.56387480  0.33969641  0.49263365  1
  C  C389  1  0.57525438  0.35657701  0.49982020  1
  C  C390  1  0.58362376  0.19537771  0.55943965  1
  C  C391  1  0.59187241  0.18527868  0.61276895  1
  C  C392  1  0.57156202  0.17921285  0.61795760  1
  C  C393  1  0.56612753  0.16843965  0.64496027  1
  C  C394  1  0.58056311  0.16332177  0.66788710  1
  C  C395  1  0.60084503  0.17049933  0.66297947  1
  C  C396  1  0.60628617  0.18164898  0.63620069  1
  C  C397  1  0.57399309  0.15082042  0.69438255  1
  C  C398  1  0.58594313  0.14237290  0.71600763  1
  C  C399  1  0.85720282  0.57098850  0.71434721  1
  C  C400  1  0.84752088  0.55927701  0.69233446  1
  C  C401  1  0.83638216  0.56293812  0.66306676  1
  C  C402  1  0.83296801  0.54691777  0.64221972  1
  C  C403  1  0.82243111  0.54810822  0.61373409  1
  C  C404  1  0.81497768  0.56564566  0.60496745  1
  C  C405  1  0.81778315  0.58176051  0.62518656  1
  C  C406  1  0.82865855  0.58056064  0.65368341  1
  C  C407  1  0.80351220  0.55117146  0.55506190  1
  C  C408  1  0.79180415  0.55676174  0.52610735  1
  C  C409  1  0.77039636  0.55623336  0.52857704  1
  C  C410  1  0.75928364  0.56283229  0.50240991  1
  C  C411  1  0.76927589  0.57002348  0.47431565  1
  C  C412  1  0.79074117  0.57081087  0.47259034  1
  C  C413  1  0.80217794  0.56380808  0.49819293  1
  C  C414  1  0.82497114  0.56363357  0.49743712  1
  C  C415  1  0.75973936  0.54767948  0.55767534  1
  C  C416  1  0.75616937  0.57684384  0.44779119  1
  C  C417  1  0.73651018  0.56193554  0.50383089  1
  C  C418  1  0.70807831  0.58123829  0.51120540  1
  C  C419  1  0.69587701  0.56437451  0.50812482  1
  C  C420  1  0.67491117  0.56510993  0.50944420  1
  C  C421  1  0.66525593  0.58278032  0.51144683  1
  C  C422  1  0.67805778  0.59970270  0.51566120  1
  C  C423  1  0.69909314  0.59885659  0.51601667  1
  C  C424  1  0.64348066  0.58207280  0.51045873  1
  C  C425  1  0.63298463  0.56547206  0.49937588  1
  C  C426  1  0.80106400  0.57951374  0.44323497  1
  C  C427  1  0.81177526  0.57088149  0.38981553  1
  C  C428  1  0.81870166  0.58986805  0.38446106  1
  C  C429  1  0.83048737  0.59428831  0.35730226  1
  C  C430  1  0.83576876  0.58008778  0.33452287  1
  C  C431  1  0.82744314  0.56119829  0.33956126  1
  C  C432  1  0.81541382  0.55675963  0.36657030  1
  C  C433  1  0.84905118  0.58520002  0.30725966  1
  C  C434  1  0.85536237  0.57302020  0.28379883  1
  C  C435  1  0.42195423  0.85835570  0.71503312  1
  C  C436  1  0.43562976  0.85708856  0.69038281  1
  C  C437  1  0.43363111  0.84460392  0.66216324  1
  C  C438  1  0.45083469  0.84164209  0.64231853  1
  C  C439  1  0.44962889  0.83017692  0.61476348  1
  C  C440  1  0.43098851  0.82126309  0.60613560  1
  C  C441  1  0.41394964  0.82296493  0.62627774  1
  C  C442  1  0.41523850  0.83444235  0.65395759  1
  C  C443  1  0.44559575  0.81070124  0.55569038  1
  C  C444  1  0.43911446  0.79899589  0.52655444  1
  C  C445  1  0.43967327  0.77882908  0.52825251  1
  C  C446  1  0.43287766  0.76762922  0.50157966  1
  C  C447  1  0.42520575  0.77628256  0.47382188  1
  C  C448  1  0.42426922  0.79648040  0.47279076  1
  C  C449  1  0.43181726  0.80799690  0.49875563  1
  C  C450  1  0.43256658  0.82954296  0.49818535  1
  C  C451  1  0.44862783  0.76952592  0.55695515  1
  C  C452  1  0.41803290  0.76314066  0.44689151  1
  C  C453  1  0.43400471  0.74621219  0.50240021  1
  C  C454  1  0.41376504  0.71742561  0.51026307  1
  C  C455  1  0.43161408  0.70751492  0.50724276  1
  C  C456  1  0.43077248  0.68767437  0.50880706  1
  C  C457  1  0.41199702  0.67689215  0.51072382  1
  C  C458  1  0.39411105  0.68737124  0.51504376  1
  C  C459  1  0.39509002  0.70731548  0.51532967  1
  C  C460  1  0.41278353  0.65644650  0.50941088  1
  C  C461  1  0.43040716  0.64824717  0.49792084  1
  C  C462  1  0.41473158  0.80540790  0.44399234  1
  C  C463  1  0.42372042  0.81629019  0.39034168  1
  C  C464  1  0.40381128  0.82153503  0.38483039  1
  C  C465  1  0.39959992  0.83229318  0.35789576  1
  C  C466  1  0.41513409  0.83819088  0.33576776  1
  C  C467  1  0.43463865  0.83111492  0.34033436  1
  C  C468  1  0.43891855  0.82037442  0.36723968  1
  C  C469  1  0.41192518  0.85006720  0.30796474  1
  C  C470  1  0.42776891  0.85951513  0.29250854  1
  C  C471  1  0.44278842  0.47356569  0.50632069  1
  C  C472  1  0.42742304  0.46319018  0.50279047  1
  C  C473  1  0.41025119  0.45210935  0.49996651  1
  C  C474  1  0.39335198  0.44373992  0.49871334  1
  C  C475  1  0.53620252  0.41890809  0.50117274  1
  C  C476  1  0.54590005  0.40435281  0.50184370  1
  C  C477  1  0.55678229  0.38872350  0.50207896  1
  C  C478  1  0.56590880  0.37371940  0.50126151  1
  C  C479  1  0.56277912  0.53145846  0.49891759  1
  C  C480  1  0.57812409  0.54180529  0.50309637  1
  C  C481  1  0.59557850  0.55254890  0.50561860  1
  C  C482  1  0.61272630  0.56047795  0.50441226  1
  C  C483  1  0.46544879  0.58458154  0.50426183  1
  C  C484  1  0.45552573  0.59901332  0.50428548  1
  C  C485  1  0.44471792  0.61469043  0.50431300  1
  C  C486  1  0.43582058  0.62981114  0.50298361  1
  C  C487  1  0.06857866  0.48256152  0.89580352  1
  C  C488  1  0.06816307  0.46945268  0.86618364  1
  C  C489  1  0.09027700  0.46755434  0.85505805  1
  C  C490  1  0.09271686  0.45626961  0.82617164  1
  C  C491  1  0.12646766  0.42400611  0.73172817  1
  C  C492  1  0.12520200  0.43590081  0.76327658  1
  C  C493  1  0.10295282  0.43713811  0.77369380  1
  C  C494  1  0.10023072  0.44808589  0.80292569  1
  C  C495  1  0.52790587  0.06444433  0.90116890  1
  C  C496  1  0.53486438  0.06574369  0.86592230  1
  C  C497  1  0.54420071  0.08603375  0.86055498  1
  C  C498  1  0.55115008  0.08964732  0.82804693  1
  C  C499  1  0.58053950  0.12263277  0.72905526  1
  C  C500  1  0.57379167  0.12096384  0.76470679  1
  C  C501  1  0.56500273  0.10057757  0.77090165  1
  C  C502  1  0.55833198  0.09728617  0.80366816  1
  C  C503  1  0.94331555  0.51274614  0.12385904  1
  C  C504  1  0.93464508  0.53167988  0.13476970  1
  C  C505  1  0.92138397  0.52824516  0.16496650  1
  C  C506  1  0.91253466  0.54536709  0.17671652  1
  C  C507  1  0.86849909  0.57975881  0.25601751  1
  C  C508  1  0.87979474  0.56381982  0.23915203  1
  C  C509  1  0.89198822  0.57097003  0.20953670  1
  C  C510  1  0.90240218  0.55571522  0.19399848  1
  C  C511  1  0.46684864  0.95141921  0.11756546  1
  C  C512  1  0.47042713  0.93244467  0.13393939  1
  C  C513  1  0.45185043  0.92925651  0.15658704  1
  C  C514  1  0.45146435  0.91250673  0.17651411  1
  C  C515  1  0.43068806  0.86108422  0.25653056  1
  C  C516  1  0.42964856  0.88100100  0.24061321  1
  C  C517  1  0.44704422  0.88328393  0.21585562  1
  C  C518  1  0.44676214  0.90014697  0.19637382  1
  C  C519  1  0.51630296  0.05726755  0.12387555  1
  C  C520  1  0.53639452  0.06670744  0.13536798  1
  C  C521  1  0.53225116  0.07867074  0.16573877  1
  C  C522  1  0.55015450  0.08845873  0.17835088  1
  C  C523  1  0.58988522  0.13076478  0.25634590  1
  C  C524  1  0.57157287  0.12000453  0.24119553  1
  C  C525  1  0.57794292  0.10917934  0.21062555  1
  C  C526  1  0.56116906  0.09863523  0.19582259  1
  C  C527  1  0.05069391  0.47304930  0.12638077  1
  C  C528  1  0.07318548  0.47257591  0.13522519  1
  C  C529  1  0.07366875  0.45841599  0.16356172  1
  C  C530  1  0.09308525  0.45586000  0.17833527  1
  C  C531  1  0.14480380  0.43165769  0.25612446  1
  C  C532  1  0.12338418  0.43433429  0.24221135  1
  C  C533  1  0.12505479  0.44721807  0.21238114  1
  C  C534  1  0.10612025  0.45029803  0.19637275  1
  C  C535  1  0.94143376  0.53125293  0.90307005  1
  C  C536  1  0.93385366  0.52894028  0.86838088  1
  C  C537  1  0.92213384  0.54696173  0.86207153  1
  C  C538  1  0.91225279  0.54762996  0.83137826  1
  C  C539  1  0.87465702  0.56230749  0.73119589  1
  C  C540  1  0.88092581  0.56763858  0.76594941  1
  C  C541  1  0.89323887  0.55066792  0.77656525  1
  C  C542  1  0.90252679  0.55199630  0.80779749  1
  C  C543  1  0.47225203  0.95577638  0.87765297  1
  C  C544  1  0.47176841  0.93474513  0.86637957  1
  C  C545  1  0.45516897  0.93275854  0.84067277  1
  C  C546  1  0.45328752  0.91437190  0.82478144  1
  C  C547  1  0.42892504  0.86127981  0.74930222  1
  C  C548  1  0.43003337  0.88194493  0.76342142  1
  C  C549  1  0.44561225  0.88282772  0.79057939  1
  C  C550  1  0.44768263  0.90111660  0.80683731  1
  S  S551  1  0.98730776  0.46890232  -0.00166365  1
  S  S552  1  0.01826480  0.53346650  0.00631301  1
  S  S553  1  0.53915047  0.98546719  -0.00117173  1
  S  S554  1  0.46631616  0.01614561  0.00778977  1
  N  N555  1  0.02233734  0.49320324  0.96464939  1
  N  N556  1  0.98280564  0.50767579  0.96467645  1
  N  N557  1  0.02265435  0.49365879  0.04011714  1
  N  N558  1  0.98106392  0.50905166  0.03801690  1
  N  N559  1  0.51056118  0.01857501  0.96239676  1
  N  N560  1  0.49507225  0.97923353  0.96766071  1
  N  N561  1  0.51413443  0.02146430  0.03733534  1
  N  N562  1  0.49762269  0.98153143  0.04008655  1
  N  N563  1  0.51088128  0.47335850  0.50041971  1
  N  N564  1  0.49227587  0.53076070  0.50455476  1
  O  O565  1  0.47266837  0.48996147  0.48803515  1
  O  O566  1  0.46241900  0.49293205  0.54045073  1
  O  O567  1  0.53193387  0.51549743  0.51454816  1
  O  O568  1  0.54497941  0.51132321  0.46388156  1
  O  O569  1  0.19736237  0.41392931  0.42135175  1
  O  O570  1  0.20139635  0.41325595  0.58480568  1
  O  O571  1  0.27349620  0.42703094  0.48981346  1
  O  O572  1  0.59606961  0.19113986  0.42234067  1
  O  O573  1  0.59814773  0.19505603  0.58584232  1
  O  O574  1  0.58267397  0.26212792  0.49066884  1
  O  O575  1  0.80464961  0.56768405  0.57713886  1
  O  O576  1  0.80106339  0.56552657  0.41681218  1
  O  O577  1  0.72871533  0.58088645  0.50994499  1
  O  O578  1  0.42871277  0.81030184  0.57892508  1
  O  O579  1  0.42913469  0.80658006  0.41697173  1
  O  O580  1  0.41403624  0.73691561  0.50880471  1
