# generated using pymatgen
data_ZnH125C123(NO5)2
_symmetry_space_group_name_H-M   'P 1'
_cell_length_a   79.90176590
_cell_length_b   74.77237442
_cell_length_c   39.52652398
_cell_angle_alpha   90.19398591
_cell_angle_beta   89.74249363
_cell_angle_gamma   122.14574238
_symmetry_Int_Tables_number   1
_chemical_formula_structural   ZnH125C123(NO5)2
_chemical_formula_sum   'Zn2 H250 C246 N4 O20'
_cell_volume   199944.61737063
_cell_formula_units_Z   2
loop_
 _symmetry_equiv_pos_site_id
 _symmetry_equiv_pos_as_xyz
  1  'x, y, z'
loop_
 _atom_site_type_symbol
 _atom_site_label
 _atom_site_symmetry_multiplicity
 _atom_site_fract_x
 _atom_site_fract_y
 _atom_site_fract_z
 _atom_site_occupancy
  Zn  Zn0  1  0.71062750  0.38256555  0.43953432  1
  Zn  Zn1  1  0.71439145  0.38514641  0.57070823  1
  H  H2  1  0.93127754  0.88731121  0.98117834  1
  H  H3  1  0.92841825  0.89407310  0.05783500  1
  H  H4  1  0.95160388  0.92610565  0.08369455  1
  H  H5  1  0.98065279  0.96216211  0.08338391  1
  H  H6  1  0.98804309  0.95687020  0.97653672  1
  H  H7  1  0.95887867  0.92055432  0.97654042  1
  H  H8  1  0.01330619  0.99065750  0.07708341  1
  H  H9  1  0.99543559  0.99650996  0.06523602  1
  H  H10  1  0.99526810  0.03576591  0.01651568  1
  H  H11  1  0.99293143  0.02434584  0.05644350  1
  H  H12  1  0.98853553  0.00915286  0.01930869  1
  H  H13  1  0.03865043  0.99457802  0.06682297  1
  H  H14  1  0.05500434  0.01708529  0.09122189  1
  H  H15  1  0.06330557  0.01127991  0.05355799  1
  H  H16  1  0.06569810  0.08706038  0.98973683  1
  H  H17  1  0.07916541  0.07482329  0.98131153  1
  H  H18  1  0.08179777  0.08755661  0.02039950  1
  H  H19  1  0.09041172  0.06718379  0.04136899  1
  H  H20  1  0.08399531  0.04084848  0.04862456  1
  H  H21  1  0.11553023  0.06331217  0.04779378  1
  H  H22  1  0.15050606  0.07698203  0.03898789  1
  H  H23  1  0.14041491  0.06589357  0.93140355  1
  H  H24  1  0.10493597  0.05218979  0.94065464  1
  H  H25  1  0.17389726  0.07993258  0.95295036  1
  H  H26  1  0.18025249  0.08895070  0.02997865  1
  H  H27  1  0.03856083  0.07251396  0.97433946  1
  H  H28  1  0.01379245  0.05675995  0.98808106  1
  H  H29  1  0.02083378  0.08470065  0.95872033  1
  H  H30  1  0.00324446  0.10269934  0.94616586  1
  H  H31  1  0.00914238  0.12224032  0.05105172  1
  H  H32  1  0.02580002  0.10313148  0.06355116  1
  H  H33  1  0.99199009  0.12593321  0.96269021  1
  H  H34  1  0.99311540  0.13521622  0.03943602  1
  H  H35  1  0.87188745  0.38531852  0.78467656  1
  H  H36  1  0.83097999  0.34497089  0.79702136  1
  H  H37  1  0.82605301  0.32499054  0.84600132  1
  H  H38  1  0.83752649  0.31621109  0.89693714  1
  H  H39  1  0.89681834  0.36833376  0.87729958  1
  H  H40  1  0.88541786  0.37706448  0.82584761  1
  H  H41  1  0.85412609  0.30765521  0.93329324  1
  H  H42  1  0.85091011  0.32708071  0.95217381  1
  H  H43  1  0.86803130  0.35646354  0.02846561  1
  H  H44  1  0.84771687  0.33402063  0.00961844  1
  H  H45  1  0.86593412  0.35471123  0.98399161  1
  H  H46  1  0.87559312  0.30261108  0.92132977  1
  H  H47  1  0.86774328  0.28133377  0.94972627  1
  H  H48  1  0.89289842  0.29732171  0.93775295  1
  H  H49  1  0.91134674  0.33496212  0.08008705  1
  H  H50  1  0.92456492  0.33023729  0.04882789  1
  H  H51  1  0.90406894  0.30891491  0.06960219  1
  H  H52  1  0.90421646  0.29331797  0.02406534  1
  H  H53  1  0.89923223  0.28913001  0.98002445  1
  H  H54  1  0.91316074  0.27499015  0.99895765  1
  H  H55  1  0.93377033  0.26047364  0.00091600  1
  H  H56  1  0.98590354  0.32302474  0.98539793  1
  H  H57  1  0.96439286  0.33758792  0.98280054  1
  H  H58  1  0.98933137  0.29072578  0.99213315  1
  H  H59  1  0.94916568  0.25033032  0.01105523  1
  H  H60  1  0.90508180  0.35667052  0.07304416  1
  H  H61  1  0.88626989  0.36078442  0.06044567  1
  H  H62  1  0.90337305  0.37672417  0.11278976  1
  H  H63  1  0.89915617  0.39404637  0.16191626  1
  H  H64  1  0.84649344  0.33536417  0.19058500  1
  H  H65  1  0.85132422  0.31768753  0.14189523  1
  H  H66  1  0.87767204  0.39396601  0.20758196  1
  H  H67  1  0.85297695  0.35151264  0.24365199  1
  H  H68  1  0.54618346  0.23392160  0.22087815  1
  H  H69  1  0.55289220  0.19783421  0.20381907  1
  H  H70  1  0.53813551  0.17820309  0.15425622  1
  H  H71  1  0.51839465  0.17070703  0.10273578  1
  H  H72  1  0.51382540  0.22489628  0.12284502  1
  H  H73  1  0.53443453  0.23300776  0.17379252  1
  H  H74  1  0.49370957  0.16250253  0.07269303  1
  H  H75  1  0.51627158  0.18056253  0.05204984  1
  H  H76  1  0.52977736  0.21204173  0.97901951  1
  H  H77  1  0.52769969  0.18965491  0.99792773  1
  H  H78  1  0.52946655  0.21010821  0.02342504  1
  H  H79  1  0.46815231  0.15933443  0.08475242  1
  H  H80  1  0.45398185  0.13746721  0.05763358  1
  H  H81  1  0.44565044  0.15445905  0.06862013  1
  H  H82  1  0.46562327  0.19191011  0.92644292  1
  H  H83  1  0.44745686  0.18746942  0.95707373  1
  H  H84  1  0.44648892  0.16599203  0.93629177  1
  H  H85  1  0.42985834  0.14936197  0.98125412  1
  H  H86  1  0.43043346  0.14468064  0.02515137  1
  H  H87  1  0.40046559  0.13085399  0.00666302  1
  H  H88  1  0.36546373  0.11878864  0.00429374  1
  H  H89  1  0.38020605  0.18263868  0.02211096  1
  H  H90  1  0.41568847  0.19476205  0.02403307  1
  H  H91  1  0.34644998  0.15624416  0.01471111  1
  H  H92  1  0.33429732  0.10990535  0.00147807  1
  H  H93  1  0.49340395  0.21353338  0.93514537  1
  H  H94  1  0.51592581  0.21645912  0.94756380  1
  H  H95  1  0.51538256  0.23242923  0.90195611  1
  H  H96  1  0.53903346  0.25098064  0.85569378  1
  H  H97  1  0.52929935  0.19153130  0.81951307  1
  H  H98  1  0.50687405  0.17309489  0.86792236  1
  H  H99  1  0.55635897  0.25042652  0.80548780  1
  H  H100  1  0.55269242  0.20867517  0.78575297  1
  H  H101  1  0.66746729  0.49710057  0.78174653  1
  H  H102  1  0.70161331  0.49065448  0.79929051  1
  H  H103  1  0.72145233  0.50810368  0.84586890  1
  H  H104  1  0.72997889  0.52951245  0.89725106  1
  H  H105  1  0.68125102  0.53768065  0.87978565  1
  H  H106  1  0.67255610  0.51608747  0.82818703  1
  H  H107  1  0.73818340  0.55557710  0.93441521  1
  H  H108  1  0.71975223  0.53178424  0.95347460  1
  H  H109  1  0.69188876  0.51957448  0.02946369  1
  H  H110  1  0.71258057  0.52072784  0.01108492  1
  H  H111  1  0.69391926  0.51931120  0.98504523  1
  H  H112  1  0.74499997  0.58430706  0.92412080  1
  H  H113  1  0.76484073  0.59795199  0.95284923  1
  H  H114  1  0.75069141  0.60871984  0.94079659  1
  H  H115  1  0.71555170  0.58930886  0.08331798  1
  H  H116  1  0.72075484  0.60890832  0.05250911  1
  H  H117  1  0.74018975  0.60850127  0.07272809  1
  H  H118  1  0.75565559  0.62506685  0.02787478  1
  H  H119  1  0.75981960  0.62388937  0.98403480  1
  H  H120  1  0.77527885  0.65430125  0.00140534  1
  H  H121  1  0.79179568  0.69218776  0.00290676  1
  H  H122  1  0.73568449  0.68721511  0.98808674  1
  H  H123  1  0.71915132  0.64838197  0.98589645  1
  H  H124  1  0.76769427  0.72402462  0.99390443  1
  H  H125  1  0.80374200  0.72087031  0.01243001  1
  H  H126  1  0.69328199  0.55956687  0.07464105  1
  H  H127  1  0.68871643  0.53479830  0.06159436  1
  H  H128  1  0.67291963  0.53475682  0.11557913  1
  H  H129  1  0.65691245  0.51200280  0.16464609  1
  H  H130  1  0.71267800  0.52125237  0.19520814  1
  H  H131  1  0.72835594  0.54237062  0.14387839  1
  H  H132  1  0.65918385  0.49450801  0.21904352  1
  H  H133  1  0.69443043  0.48896514  0.21535189  1
  H  H134  1  0.71525398  0.34300943  0.45173226  1
  H  H135  1  0.73842773  0.33277863  0.42976309  1
  H  H136  1  0.77482904  0.39608517  0.39068088  1
  H  H137  1  0.74971371  0.40339858  0.41261296  1
  H  H138  1  0.70907892  0.35820892  0.63941231  1
  H  H139  1  0.67956000  0.32765223  0.66636054  1
  H  H140  1  0.64359587  0.33493294  0.59284254  1
  H  H141  1  0.67460476  0.36462621  0.56769514  1
  H  H142  1  0.71474381  0.34396042  0.56393031  1
  H  H143  1  0.73886633  0.33359160  0.57864768  1
  H  H144  1  0.77735810  0.39719260  0.61708305  1
  H  H145  1  0.75071336  0.40385042  0.60473363  1
  H  H146  1  0.71297419  0.36219513  0.37690798  1
  H  H147  1  0.68971315  0.32864356  0.34624249  1
  H  H148  1  0.64154843  0.32776458  0.39869636  1
  H  H149  1  0.66695720  0.35673547  0.43531878  1
  H  H150  1  0.84669857  0.35691473  0.73007934  1
  H  H151  1  0.77096375  0.34370988  0.60509076  1
  H  H152  1  0.76843170  0.35319791  0.66450074  1
  H  H153  1  0.79706383  0.34918783  0.65082377  1
  H  H154  1  0.79376979  0.35850010  0.71087201  1
  H  H155  1  0.82203532  0.35438919  0.69286451  1
  H  H156  1  0.81921242  0.36168826  0.75441671  1
  H  H157  1  0.86205090  0.38459580  0.72802861  1
  H  H158  1  0.78887744  0.37038276  0.59548151  1
  H  H159  1  0.78325335  0.38029071  0.65544634  1
  H  H160  1  0.81172693  0.37629922  0.64079777  1
  H  H161  1  0.80840382  0.38560956  0.70078043  1
  H  H162  1  0.83671050  0.38177423  0.68518328  1
  H  H163  1  0.83486840  0.38902414  0.74676559  1
  H  H164  1  0.58493988  0.24292607  0.22241639  1
  H  H165  1  0.65863129  0.32020014  0.31518055  1
  H  H166  1  0.62798533  0.31849891  0.33319775  1
  H  H167  1  0.62948824  0.29539851  0.28849334  1
  H  H168  1  0.59587223  0.28905033  0.29702960  1
  H  H169  1  0.60512974  0.26848202  0.25845670  1
  H  H170  1  0.57047272  0.26048813  0.25849351  1
  H  H171  1  0.57407272  0.22161347  0.25069644  1
  H  H172  1  0.65341139  0.29892529  0.34154171  1
  H  H173  1  0.62283347  0.29901323  0.36397333  1
  H  H174  1  0.62475315  0.27637327  0.31954516  1
  H  H175  1  0.59111632  0.27079754  0.32988127  1
  H  H176  1  0.59876932  0.24967936  0.29067195  1
  H  H177  1  0.56381310  0.24052922  0.28907888  1
  H  H178  1  0.55556068  0.24461567  0.74336028  1
  H  H179  1  0.63304050  0.32507644  0.65655915  1
  H  H180  1  0.64815101  0.31469031  0.70198020  1
  H  H181  1  0.61185165  0.29928715  0.69420382  1
  H  H182  1  0.61984308  0.28398596  0.74281594  1
  H  H183  1  0.58540900  0.27213197  0.72298828  1
  H  H184  1  0.58878392  0.25509769  0.77379589  1
  H  H185  1  0.55550366  0.22263488  0.72710537  1
  H  H186  1  0.62982878  0.30440942  0.63045637  1
  H  H187  1  0.64674135  0.29475225  0.67549763  1
  H  H188  1  0.61054787  0.27981770  0.66707203  1
  H  H189  1  0.61981392  0.26506022  0.71562587  1
  H  H190  1  0.58534895  0.25297133  0.69679592  1
  H  H191  1  0.58886423  0.23562591  0.74849130  1
  H  H192  1  0.67644188  0.49363910  0.28167153  1
  H  H193  1  0.71093063  0.44003170  0.41218143  1
  H  H194  1  0.67824652  0.41777638  0.38335441  1
  H  H195  1  0.69864883  0.45637354  0.36922037  1
  H  H196  1  0.66631663  0.43535172  0.33805686  1
  H  H197  1  0.68893831  0.47409688  0.32757232  1
  H  H198  1  0.65896214  0.45660031  0.28858238  1
  H  H199  1  0.69881540  0.49497678  0.27466061  1
  H  H200  1  0.72330931  0.43722465  0.37720575  1
  H  H201  1  0.68942910  0.41224640  0.34989161  1
  H  H202  1  0.71056983  0.45107893  0.33664037  1
  H  H203  1  0.67816158  0.42964614  0.30578926  1
  H  H204  1  0.70203082  0.46899721  0.29699588  1
  H  H205  1  0.67319468  0.45296210  0.25834627  1
  H  H206  1  0.66170643  0.47546994  0.73365581  1
  H  H207  1  0.68360745  0.41719604  0.60210344  1
  H  H208  1  0.71371560  0.44920761  0.62804861  1
  H  H209  1  0.67873419  0.43808249  0.64439465  1
  H  H210  1  0.70607744  0.47073365  0.67224784  1
  H  H211  1  0.67085291  0.45756227  0.68801937  1
  H  H212  1  0.69723016  0.48986097  0.71869259  1
  H  H213  1  0.66211633  0.45854656  0.76373342  1
  H  H214  1  0.68389753  0.40136630  0.63485893  1
  H  H215  1  0.71376990  0.43324403  0.66054032  1
  H  H216  1  0.67926785  0.42243400  0.67715670  1
  H  H217  1  0.70726081  0.45525630  0.70464951  1
  H  H218  1  0.67150847  0.44133781  0.71950788  1
  H  H219  1  0.69846960  0.47360428  0.74956976  1
  H  H220  1  0.82639589  0.35918486  0.23980109  1
  H  H221  1  0.75752163  0.33833647  0.37508222  1
  H  H222  1  0.79165915  0.35692486  0.39373970  1
  H  H223  1  0.78507893  0.34711732  0.33129948  1
  H  H224  1  0.82013877  0.36254559  0.35026260  1
  H  H225  1  0.80906343  0.35267283  0.28929141  1
  H  H226  1  0.84412363  0.36473404  0.30010905  1
  H  H227  1  0.84345218  0.38647504  0.23483206  1
  H  H228  1  0.76146393  0.36038393  0.35183508  1
  H  H229  1  0.79582785  0.38195186  0.38374110  1
  H  H230  1  0.79020271  0.37267491  0.32263279  1
  H  H231  1  0.82533356  0.38825695  0.34226124  1
  H  H232  1  0.81558962  0.37883237  0.28157279  1
  H  H233  1  0.85145303  0.39128344  0.29388724  1
  H  H234  1  0.97237355  0.17696778  0.94716172  1
  H  H235  1  0.96945535  0.21048396  0.94690779  1
  H  H236  1  0.01024199  0.23733641  0.01960574  1
  H  H237  1  0.01394825  0.20421683  0.01959662  1
  H  H238  1  0.96068354  0.16937118  0.04547854  1
  H  H239  1  0.95762758  0.20289514  0.04636581  1
  H  H240  1  0.23452911  0.08233499  0.95288104  1
  H  H241  1  0.27080739  0.09028587  0.95534405  1
  H  H242  1  0.27089664  0.09546764  0.05644837  1
  H  H243  1  0.23508942  0.08890005  0.05557973  1
  H  H244  1  0.25121213  0.13516813  0.99615680  1
  H  H245  1  0.28782381  0.14361577  0.99531353  1
  H  H246  1  0.86286279  0.83794254  0.96817322  1
  H  H247  1  0.82884277  0.80147002  0.96832919  1
  H  H248  1  0.83903091  0.78869121  0.06299160  1
  H  H249  1  0.87203266  0.82553934  0.06590726  1
  H  H250  1  0.88901351  0.81391036  0.97535800  1
  H  H251  1  0.85639542  0.77599295  0.97590467  1
  C  C252  1  0.92515211  0.88397808  0.00688099  1
  C  C253  1  0.93470991  0.89875993  0.03249693  1
  C  C254  1  0.95227019  0.92001030  0.03025847  1
  C  C255  1  0.95936076  0.93271375  0.05986994  1
  C  C256  1  0.97581018  0.95324935  0.05974602  1
  C  C257  1  0.98612781  0.96215076  0.02963343  1
  C  C258  1  0.97985198  0.95000816  0.99998379  1
  C  C259  1  0.96328711  0.92943995  1.00017849  1
  C  C260  1  0.00853627  0.99659197  0.05615952  1
  C  C261  1  0.02484657  0.01821841  0.04435409  1
  C  C262  1  0.04492591  0.02430951  0.04591366  1
  C  C263  1  0.05969681  0.04364930  0.03117652  1
  C  C264  1  0.05451402  0.05703961  0.01550599  1
  C  C265  1  0.03440823  0.05064274  0.01396076  1
  C  C266  1  0.01952466  0.03170191  0.02934116  1
  C  C267  1  0.99813050  0.02500545  0.03030111  1
  C  C268  1  0.05073083  0.01115264  0.06509209  1
  C  C269  1  0.07093271  0.07754217  0.00094000  1
  C  C270  1  0.08125662  0.05077707  0.03201891  1
  C  C271  1  0.10793068  0.05728610  0.99463081  1
  C  C272  1  0.12086162  0.06403810  0.02208452  1
  C  C273  1  0.14080216  0.07156792  0.01702485  1
  C  C274  1  0.14865648  0.07238332  0.98439995  1
  C  C275  1  0.13505164  0.06535738  0.95701823  1
  C  C276  1  0.11511517  0.05780534  0.96202386  1
  C  C277  1  0.16928534  0.07968812  0.97904305  1
  C  C278  1  0.18356077  0.08646707  0.00408835  1
  C  C279  1  0.02919235  0.06492275  -0.00320297  1
  C  C280  1  0.02346654  0.09199686  0.01237045  1
  C  C281  1  0.01759129  0.09226002  0.97912799  1
  C  C282  1  0.00821242  0.10289775  0.97189868  1
  C  C283  1  0.00500336  0.11422558  0.99727883  1
  C  C284  1  0.01149788  0.11396354  0.03066183  1
  C  C285  1  0.02083179  0.10321559  0.03791980  1
  C  C286  1  0.99603510  0.12591043  0.98899272  1
  C  C287  1  0.99247846  0.13739986  0.01221558  1
  C  C288  1  0.85714293  0.37204674  0.77827753  1
  C  C289  1  0.84677622  0.35622019  0.80104182  1
  C  C290  1  0.85445989  0.35202875  0.83167299  1
  C  C291  1  0.84160603  0.33484396  0.85286979  1
  C  C292  1  0.84808567  0.32996460  0.88209148  1
  C  C293  1  0.86791785  0.34237738  0.89173709  1
  C  C294  1  0.88118639  0.35903199  0.87063888  1
  C  C295  1  0.87461864  0.36386720  0.84137921  1
  C  C296  1  0.86211682  0.32338404  0.94537377  1
  C  C297  1  0.87367512  0.32345748  0.97582643  1
  C  C298  1  0.88300217  0.31184983  0.97403467  1
  C  C299  1  0.89451164  0.31267715  0.00176552  1
  C  C300  1  0.89641926  0.32427564  0.03149684  1
  C  C301  1  0.88634623  0.33510412  0.03385539  1
  C  C302  1  0.87501051  0.33468609  0.00591097  1
  C  C303  1  0.86374430  0.34555624  0.00711491  1
  C  C304  1  0.87975514  0.29775759  0.94431348  1
  C  C305  1  0.90968070  0.32472318  0.05884293  1
  C  C306  1  0.90527010  0.30124664  0.99994807  1
  C  C307  1  0.93752736  0.30746720  0.99227608  1
  C  C308  1  0.92910793  0.28578741  0.99670505  1
  C  C309  1  0.94101905  0.27750991  0.99777218  1
  C  C310  1  0.96181958  0.29057415  0.99437064  1
  C  C311  1  0.96996735  0.31252443  0.98868288  1
  C  C312  1  0.95798838  0.32078525  0.98743774  1
  C  C313  1  0.97337426  0.28107879  0.99597036  1
  C  C314  1  0.96460079  0.25975598  0.00267493  1
  C  C315  1  0.88945985  0.34842420  0.06517157  1
  C  C316  1  0.87652653  0.34633057  0.12213545  1
  C  C317  1  0.89044606  0.36763721  0.12901569  1
  C  C318  1  0.88821821  0.37738337  0.15731965  1
  C  C319  1  0.87227866  0.36625660  0.18030768  1
  C  C320  1  0.85911194  0.34448956  0.17378414  1
  C  C321  1  0.86152335  0.33458499  0.14584624  1
  C  C322  1  0.86880744  0.37669993  0.20832885  1
  C  C323  1  0.85554876  0.36646544  0.23388235  1
  C  C324  1  0.55381636  0.22537054  0.22063014  1
  C  C325  1  0.54796505  0.20876741  0.19942513  1
  C  C326  1  0.53673242  0.20523000  0.16906864  1
  C  C327  1  0.53252286  0.18820563  0.14758954  1
  C  C328  1  0.52166659  0.18423390  0.11832338  1
  C  C329  1  0.51504003  0.19757492  0.10958588  1
  C  C330  1  0.51920986  0.21476300  0.13005661  1
  C  C331  1  0.53037276  0.21891509  0.15910599  1
  C  C332  1  0.50160292  0.17756392  0.05881539  1
  C  C333  1  0.49021127  0.17759629  0.02887119  1
  C  C334  1  0.46943844  0.16728153  0.03151988  1
  C  C335  1  0.45876823  0.16854405  0.00423150  1
  C  C336  1  0.46889114  0.18064042  0.97523801  1
  C  C337  1  0.48976870  0.19154447  0.97387421  1
  C  C338  1  0.50069536  0.18994884  0.00036316  1
  C  C339  1  0.52288099  0.20097069  1.00006273  1
  C  C340  1  0.45885408  0.15413909  0.06208766  1
  C  C341  1  0.45669972  0.18168312  0.94739678  1
  C  C342  1  0.43654473  0.15703507  0.00563426  1
  C  C343  1  0.41050229  0.16385533  0.01382923  1
  C  C344  1  0.39620594  0.14243834  0.00923815  1
  C  C345  1  0.37621363  0.13555239  0.00835284  1
  C  C346  1  0.36968426  0.14976103  0.01247069  1
  C  C347  1  0.38461499  0.17126743  0.01837598  1
  C  C348  1  0.40456027  0.17817456  0.01926501  1
  C  C349  1  0.34912223  0.14349427  0.01116864  1
  C  C350  1  0.33267136  0.12338150  0.00580596  1
  C  C351  1  0.50017294  0.20471316  0.94333534  1
  C  C352  1  0.51076083  0.20174403  0.88902477  1
  C  C353  1  0.51923341  0.22356762  0.88515590  1
  C  C354  1  0.53222237  0.23398065  0.85871814  1
  C  C355  1  0.53648033  0.22278773  0.83491461  1
  C  C356  1  0.52679047  0.20057764  0.83823751  1
  C  C357  1  0.51405386  0.19014619  0.86510779  1
  C  C358  1  0.54963586  0.23330836  0.80687046  1
  C  C359  1  0.55229912  0.22287057  0.78124010  1
  C  C360  1  0.67710382  0.49090601  0.77927682  1
  C  C361  1  0.69169964  0.49646427  0.80230779  1
  C  C362  1  0.69616729  0.50984258  0.83247201  1
  C  C363  1  0.71234212  0.51432163  0.85321457  1
  C  C364  1  0.71709240  0.52633344  0.88273107  1
  C  C365  1  0.70557733  0.53431192  0.89323354  1
  C  C366  1  0.68992001  0.53089505  0.87254141  1
  C  C367  1  0.68514918  0.51874136  0.84305284  1
  C  C368  1  0.72358409  0.54783622  0.94689137  1
  C  C369  1  0.72422140  0.56037315  0.97777044  1
  C  C370  1  0.73612633  0.58269860  0.97667009  1
  C  C371  1  0.73604405  0.59446475  0.00473981  1
  C  C372  1  0.72487954  0.58426685  0.03429091  1
  C  C373  1  0.71367557  0.56188383  0.03610287  1
  C  C374  1  0.71343459  0.55001572  0.00773104  1
  C  C375  1  0.70236465  0.52632991  0.00840927  1
  C  C376  1  0.74967468  0.59389730  0.94720746  1
  C  C377  1  0.72525391  0.59824354  0.06210487  1
  C  C378  1  0.74823138  0.61827540  0.00351636  1
  C  C379  1  0.74586078  0.64859605  0.99519496  1
  C  C380  1  0.76631502  0.66125375  0.99919589  1
  C  C381  1  0.77578648  0.68313850  0.99992893  1
  C  C382  1  0.76535787  0.69352279  0.99656731  1
  C  C383  1  0.74452789  0.68016683  0.99128113  1
  C  C384  1  0.73505365  0.65822825  0.99032319  1
  C  C385  1  0.77597862  0.71640585  0.99778385  1
  C  C386  1  0.79607749  0.72871551  0.00448518  1
  C  C387  1  0.70060183  0.55114183  0.06699168  1
  C  C388  1  0.70149675  0.53864096  0.12431025  1
  C  C389  1  0.68155999  0.53080640  0.13169286  1
  C  C390  1  0.67253834  0.51810615  0.16011560  1
  C  C391  1  0.68302526  0.51285713  0.18276533  1
  C  C392  1  0.70352530  0.52284906  0.17662128  1
  C  C393  1  0.71254729  0.53529142  0.14798404  1
  C  C394  1  0.67422448  0.49902073  0.21228973  1
  C  C395  1  0.68361076  0.49089110  0.22918532  1
  C  C396  1  0.72867747  0.35435985  0.43804854  1
  C  C397  1  0.74117644  0.34843867  0.42448610  1
  C  C398  1  0.75682004  0.36265742  0.40340338  1
  C  C399  1  0.76150740  0.38357546  0.40314537  1
  C  C400  1  0.74809655  0.38813130  0.41674412  1
  C  C401  1  0.69429101  0.35287017  0.63013887  1
  C  C402  1  0.67775246  0.33594942  0.64543679  1
  C  C403  1  0.65910591  0.33037635  0.63333404  1
  C  C404  1  0.65792243  0.34004363  0.60412994  1
  C  C405  1  0.67507308  0.35655517  0.59028833  1
  C  C406  1  0.70627465  0.40973697  0.40805306  1
  C  C407  1  0.72853200  0.35489439  0.57702008  1
  C  C408  1  0.74213577  0.34934468  0.58503412  1
  C  C409  1  0.75989998  0.36427008  0.60083948  1
  C  C410  1  0.76330021  0.38441381  0.60715046  1
  C  C411  1  0.74875844  0.38851880  0.59940500  1
  C  C412  1  0.69722803  0.35314368  0.38275312  1
  C  C413  1  0.68422861  0.33537321  0.36443281  1
  C  C414  1  0.66406183  0.32757910  0.36710966  1
  C  C415  1  0.65723619  0.33458531  0.39366614  1
  C  C416  1  0.67127025  0.35075356  0.41397328  1
  C  C417  1  0.70683578  0.41085373  0.59989883  1
  C  C418  1  0.72210386  0.39299677  0.50441133  1
  C  C419  1  0.70396006  0.36936655  0.50573775  1
  C  C420  1  0.84984793  0.37169638  0.74267969  1
  C  C421  1  0.77564211  0.36009409  0.61125876  1
  C  C422  1  0.78100512  0.36482309  0.64878518  1
  C  C423  1  0.79954027  0.36479785  0.65731175  1
  C  C424  1  0.80590287  0.36999501  0.69430325  1
  C  C425  1  0.82462935  0.36976032  0.70131027  1
  C  C426  1  0.83142278  0.37336594  0.73825221  1
  C  C427  1  0.57226862  0.23420211  0.24024824  1
  C  C428  1  0.65165780  0.31266700  0.33977916  1
  C  C429  1  0.63006545  0.30542631  0.33933276  1
  C  C430  1  0.62148346  0.28852117  0.31257251  1
  C  C431  1  0.59965247  0.27774466  0.30640424  1
  C  C432  1  0.59511694  0.26094254  0.28036477  1
  C  C433  1  0.57415825  0.24914773  0.26812608  1
  C  C434  1  0.56060968  0.23368251  0.74857611  1
  C  C435  1  0.63974199  0.31570197  0.65010030  1
  C  C436  1  0.63983812  0.30389821  0.68091095  1
  C  C437  1  0.61826641  0.28951220  0.68961745  1
  C  C438  1  0.61351046  0.27496301  0.71922115  1
  C  C439  1  0.59119408  0.26161444  0.72092995  1
  C  C440  1  0.58330361  0.24631517  0.74979437  1
  C  C441  1  0.68306684  0.48642422  0.26678993  1
  C  C442  1  0.70930270  0.42947237  0.39123218  1
  C  C443  1  0.69198854  0.42449752  0.36847980  1
  C  C444  1  0.69631907  0.44443987  0.35011215  1
  C  C445  1  0.68055589  0.44159085  0.32485632  1
  C  C446  1  0.68712213  0.46280582  0.30765868  1
  C  C447  1  0.67415699  0.46323517  0.27922306  1
  C  C448  1  0.67149173  0.47435986  0.75193654  1
  C  C449  1  0.69339830  0.41576212  0.61977329  1
  C  C450  1  0.70398147  0.43484873  0.64298125  1
  C  C451  1  0.68866019  0.43710189  0.66262398  1
  C  C452  1  0.69708493  0.45596353  0.68669441  1
  C  C453  1  0.68075470  0.45655906  0.70627183  1
  C  C454  1  0.68835399  0.47463899  0.73198736  1
  C  C455  1  0.84134556  0.37229696  0.24754275  1
  C  C456  1  0.76536454  0.35572194  0.37578855  1
  C  C457  1  0.78779242  0.36531328  0.37556362  1
  C  C458  1  0.79412152  0.36375848  0.33964023  1
  C  C459  1  0.81598580  0.37162216  0.33422739  1
  C  C460  1  0.81959799  0.36925936  0.29668907  1
  C  C461  1  0.84040492  0.37493527  0.28631155  1
  C  C462  1  0.98224257  0.18409366  0.00179748  1
  C  C463  1  0.97561260  0.18782809  0.96817824  1
  C  C464  1  0.97384139  0.20465502  0.96821999  1
  C  C465  1  0.97877738  0.21601915  0.00192591  1
  C  C466  1  0.99929366  0.22137090  0.01121806  1
  C  C467  1  1.00116122  0.20458435  0.01114668  1
  C  C468  1  0.96755638  0.18261500  0.02784885  1
  C  C469  1  0.96581003  0.19949414  0.02803427  1
  C  C470  1  0.98447853  0.16617568  0.00170993  1
  C  C471  1  0.98723495  0.15157740  0.00282481  1
  C  C472  1  0.97684602  0.23415241  0.00161403  1
  C  C473  1  0.97427986  0.24891031  0.00123971  1
  C  C474  1  0.24007391  0.10041890  0.00159636  1
  C  C475  1  0.24506425  0.09025089  0.97338771  1
  C  C476  1  0.26368262  0.09467271  0.97435638  1
  C  C477  1  0.27582628  0.10886832  0.00348553  1
  C  C478  1  0.26390667  0.09824820  0.03517740  1
  C  C479  1  0.24540637  0.09418639  0.03436412  1
  C  C480  1  0.25571623  0.12376274  0.99836236  1
  C  C481  1  0.27434830  0.12814232  0.99885067  1
  C  C482  1  0.21983702  0.09554096  0.00024411  1
  C  C483  1  0.20272131  0.09119683  -0.00142024  1
  C  C484  1  0.29610811  0.11390588  0.00450178  1
  C  C485  1  0.31349099  0.11909787  0.00538784  1
  C  C486  1  0.87420524  0.82601589  0.00881018  1
  C  C487  1  0.85847143  0.82498042  0.98577130  1
  C  C488  1  0.84126113  0.80612163  0.98520612  1
  C  C489  1  0.84138827  0.78926937  0.00607803  1
  C  C490  1  0.84779646  0.79804492  0.04133974  1
  C  C491  1  0.86472366  0.81698723  0.04278988  1
  C  C492  1  0.87576486  0.80904032  0.99029246  1
  C  C493  1  0.85889325  0.78985030  0.98972897  1
  C  C494  1  0.89249594  0.84672331  0.01047569  1
  C  C495  1  0.90775794  0.86431405  0.01171481  1
  C  C496  1  0.82300575  0.76861265  0.00471591  1
  C  C497  1  0.80803749  0.75078357  0.00346738  1
  N  N498  1  0.69274983  0.36355458  0.60441516  1
  N  N499  1  0.73169470  0.37388011  0.58509394  1
  N  N500  1  0.69063442  0.36023338  0.40738901  1
  N  N501  1  0.73179386  0.37362460  0.43328844  1
  O  O502  1  0.00261060  0.98201259  0.02747429  1
  O  O503  1  0.03215565  0.08119307  0.02074087  1
  O  O504  1  0.08834131  0.05009535  0.99806130  1
  O  O505  1  0.87543365  0.33886326  0.92018706  1
  O  O506  1  0.87722442  0.33598084  0.09408006  1
  O  O507  1  0.92621179  0.31608227  0.99260528  1
  O  O508  1  0.50433446  0.19446275  0.08122982  1
  O  O509  1  0.49892285  0.19111453  0.91576879  1
  O  O510  1  0.43031526  0.17174856  0.01348560  1
  O  O511  1  0.70909831  0.54595159  0.92209584  1
  O  O512  1  0.71142535  0.55047806  0.09648202  1
  O  O513  1  0.73611794  0.62707239  0.99576590  1
  O  O514  1  0.69121780  0.39875023  0.42605706  1
  O  O515  1  0.72012695  0.40602280  0.40264778  1
  O  O516  1  0.72625886  0.40266350  0.47653820  1
  O  O517  1  0.69538686  0.36083598  0.47817860  1
  O  O518  1  0.70004858  0.40158423  0.57108434  1
  O  O519  1  0.72231844  0.41386004  0.61339612  1
  O  O520  1  0.73162837  0.40124026  0.53141399  1
  O  O521  1  0.69904561  0.36047384  0.53430041  1
