# generated using pymatgen
data_Mn3H204C177O22
_symmetry_space_group_name_H-M   'P 1'
_cell_length_a   56.85877849
_cell_length_b   54.95861099
_cell_length_c   31.88794729
_cell_angle_alpha   90.03640869
_cell_angle_beta   89.68896882
_cell_angle_gamma   123.82219891
_symmetry_Int_Tables_number   1
_chemical_formula_structural   Mn3H204C177O22
_chemical_formula_sum   'Mn3 H204 C177 O22'
_cell_volume   82781.22764790
_cell_formula_units_Z   1
loop_
 _symmetry_equiv_pos_site_id
 _symmetry_equiv_pos_as_xyz
  1  'x, y, z'
loop_
 _atom_site_type_symbol
 _atom_site_label
 _atom_site_symmetry_multiplicity
 _atom_site_fract_x
 _atom_site_fract_y
 _atom_site_fract_z
 _atom_site_occupancy
  Mn  Mn0  1  0.71443587  0.41097761  0.50259175  1
  Mn  Mn1  1  0.64465081  0.36869765  0.48894617  1
  Mn  Mn2  1  0.67455172  0.33542036  0.50454842  1
  H  H3  1  0.08112696  0.07269430  0.98064811  1
  H  H4  1  0.07650997  0.06941182  0.03524750  1
  H  H5  1  0.00886048  0.00730121  0.99403004  1
  H  H6  1  0.06235297  0.10092062  0.00106054  1
  H  H7  1  0.97251718  0.05810337  0.99153143  1
  H  H8  1  0.04630161  0.12669748  0.02035404  1
  H  H9  1  0.03523238  0.12385058  0.96802716  1
  H  H10  1  0.95163277  0.01164237  0.94762957  1
  H  H11  1  0.96849117  0.99262880  0.94833053  1
  H  H12  1  0.90165893  0.39451178  0.72476797  1
  H  H13  1  0.84346343  0.34015770  0.74768681  1
  H  H14  1  0.83642401  0.31213895  0.80853769  1
  H  H15  1  0.85295642  0.30365105  0.87433461  1
  H  H16  1  0.93702607  0.37974846  0.84974165  1
  H  H17  1  0.91993568  0.38924023  0.78450020  1
  H  H18  1  0.87652930  0.29417361  0.91504987  1
  H  H19  1  0.87036351  0.31887119  0.94027206  1
  H  H20  1  0.89391250  0.35924342  0.03465625  1
  H  H21  1  0.86665465  0.32950914  0.00603140  1
  H  H22  1  0.89461904  0.36044054  0.97914494  1
  H  H23  1  0.90913418  0.29100395  0.89941195  1
  H  H24  1  0.89637915  0.26022927  0.93259234  1
  H  H25  1  0.93292942  0.28351950  0.92053320  1
  H  H26  1  0.95743670  0.33350878  0.09724296  1
  H  H27  1  0.97644546  0.32706306  0.05942690  1
  H  H28  1  0.94610529  0.29745316  0.08431319  1
  H  H29  1  0.94441961  0.27437847  0.02903477  1
  H  H30  1  0.93848503  0.26919141  0.97408582  1
  H  H31  1  0.95602160  0.24820957  1.00089364  1
  H  H32  1  0.98387134  0.22696450  1.00147733  1
  H  H33  1  0.06017750  0.31224522  0.97683113  1
  H  H34  1  0.03196006  0.33404264  0.97834455  1
  H  H35  1  0.05789435  0.26316802  0.96738575  1
  H  H36  1  0.02024186  0.22269686  0.03758647  1
  H  H37  1  0.95099614  0.36459498  0.08646540  1
  H  H38  1  0.92508060  0.37053485  0.06944695  1
  H  H39  1  0.94727532  0.39174919  0.13010187  1
  H  H40  1  0.94208572  0.41584353  0.19092617  1
  H  H41  1  0.86795647  0.33327499  0.23099528  1
  H  H42  1  0.87344754  0.30892226  0.16984311  1
  H  H43  1  0.91293894  0.41545156  0.24685166  1
  H  H44  1  0.87491774  0.35759314  0.29386780  1
  H  H45  1  0.44884915  0.15843986  0.27463699  1
  H  H46  1  0.46544041  0.11535841  0.25183967  1
  H  H47  1  0.43863049  0.08100143  0.19625421  1
  H  H48  1  0.40950688  0.06694903  0.13294440  1
  H  H49  1  0.40123725  0.13969136  0.15127252  1
  H  H50  1  0.43232128  0.15516362  0.21311342  1
  H  H51  1  0.37322093  0.05310213  0.08843939  1
  H  H52  1  0.40585638  0.08045024  0.06508168  1
  H  H53  1  0.42449476  0.12032187  0.97023976  1
  H  H54  1  0.42105861  0.09092707  0.99834190  1
  H  H55  1  0.42482309  0.12093727  0.02565644  1
  H  H56  1  0.33679401  0.05060267  0.10534261  1
  H  H57  1  0.31602975  0.01914968  0.07355159  1
  H  H58  1  0.30457073  0.04253249  0.08475075  1
  H  H59  1  0.33277827  0.09184109  0.90756521  1
  H  H60  1  0.30704075  0.08527897  0.94582732  1
  H  H61  1  0.30525236  0.05574204  0.92041409  1
  H  H62  1  0.28157835  0.03197340  0.97563160  1
  H  H63  1  0.28222512  0.02573578  0.03005924  1
  H  H64  1  0.23614621  0.00794041  0.00419634  1
  H  H65  1  0.18776854  0.99616585  0.00404399  1
  H  H66  1  0.22019987  0.08694191  0.02863244  1
  H  H67  1  0.26906391  0.09883530  0.02761009  1
  H  H68  1  0.17396221  0.05677799  0.02606722  1
  H  H69  1  0.13889916  0.99098369  1.00936425  1
  H  H70  1  0.37187645  0.12250047  0.91782924  1
  H  H71  1  0.40459901  0.12960303  0.93475196  1
  H  H72  1  0.40333306  0.15065605  0.87599156  1
  H  H73  1  0.43676344  0.17829016  0.81878844  1
  H  H74  1  0.42647960  0.09896781  0.77284950  1
  H  H75  1  0.39406041  0.07152568  0.83218962  1
  H  H76  1  0.46485381  0.18287671  0.76366946  1
  H  H77  1  0.46108242  0.12952383  0.72456438  1
  H  H78  1  0.65351109  0.58129319  0.73065133  1
  H  H79  1  0.70094873  0.57159360  0.75083236  1
  H  H80  1  0.73008523  0.59575878  0.80794854  1
  H  H81  1  0.74283220  0.62540521  0.87176771  1
  H  H82  1  0.67454430  0.63658265  0.84995561  1
  H  H83  1  0.66109931  0.60616068  0.78642081  1
  H  H84  1  0.75590770  0.66147881  0.91531779  1
  H  H85  1  0.72852408  0.62806042  0.93828774  1
  H  H86  1  0.69083458  0.61029470  0.03409750  1
  H  H87  1  0.71862072  0.61313144  0.00482796  1
  H  H88  1  0.68944075  0.60942011  0.97863480  1
  H  H89  1  0.76060399  0.69986328  0.89820883  1
  H  H90  1  0.79052598  0.71962297  0.93115237  1
  H  H91  1  0.77002604  0.73379166  0.91876427  1
  H  H92  1  0.72097067  0.70660093  0.09609909  1
  H  H93  1  0.72928580  0.73418041  0.05845333  1
  H  H94  1  0.75647548  0.73314837  0.08295028  1
  H  H95  1  0.77931784  0.75639702  0.02698958  1
  H  H96  1  0.78399700  0.75525672  0.97193952  1
  H  H97  1  0.80689408  0.79585347  0.99627619  1
  H  H98  1  0.83172607  0.84778428  1.00233276  1
  H  H99  1  0.75355282  0.84254669  0.98070632  1
  H  H100  1  0.72783124  0.78847526  0.97882266  1
  H  H101  1  0.80066187  0.89294721  0.98999753  1
  H  H102  1  0.85060733  0.88540783  0.00137233  1
  H  H103  1  0.68887810  0.66590878  0.08506374  1
  H  H104  1  0.68118739  0.63156595  0.06835238  1
  H  H105  1  0.66148414  0.63213123  0.13031190  1
  H  H106  1  0.63753979  0.60015646  0.19131923  1
  H  H107  1  0.71535539  0.60928403  0.22631184  1
  H  H108  1  0.73978697  0.64298589  0.16637715  1
  H  H109  1  0.63649623  0.56969272  0.24764640  1
  H  H110  1  0.69458446  0.59215460  0.28658126  1
  H  H111  1  0.87561135  0.41838403  0.71527519  1
  H  H112  1  0.74303285  0.39167052  0.62362635  1
  H  H113  1  0.77687744  0.38998020  0.57226631  1
  H  H114  1  0.78443803  0.39537944  0.65009597  1
  H  H115  1  0.82090615  0.39425509  0.60463537  1
  H  H116  1  0.82713678  0.40518628  0.68083737  1
  H  H117  1  0.86411228  0.39799167  0.64674369  1
  H  H118  1  0.84513548  0.38772833  0.73801700  1
  H  H119  1  0.72256445  0.35268686  0.62590646  1
  H  H120  1  0.75712950  0.35155385  0.57774785  1
  H  H121  1  0.76570880  0.35698432  0.65540868  1
  H  H122  1  0.80278159  0.35628819  0.61479579  1
  H  H123  1  0.80706641  0.36752259  0.69317159  1
  H  H124  1  0.84347104  0.36141821  0.66477528  1
  H  H125  1  0.50277816  0.15924099  0.29320929  1
  H  H126  1  0.61492243  0.27972146  0.41580415  1
  H  H127  1  0.58952737  0.29627771  0.36922773  1
  H  H128  1  0.57786629  0.24493670  0.37192793  1
  H  H129  1  0.54771376  0.25300921  0.32444112  1
  H  H130  1  0.54007875  0.20334022  0.33243401  1
  H  H131  1  0.50868568  0.20826298  0.28305944  1
  H  H132  1  0.47789237  0.15051183  0.33327804  1
  H  H133  1  0.59227323  0.27518720  0.45763092  1
  H  H134  1  0.56573428  0.28821974  0.41085751  1
  H  H135  1  0.55405408  0.23654977  0.41374987  1
  H  H136  1  0.52380127  0.24460053  0.36622822  1
  H  H137  1  0.51592376  0.19492319  0.37373192  1
  H  H138  1  0.48428196  0.19933217  0.32425651  1
  H  H139  1  0.47346950  0.18840753  0.69069152  1
  H  H140  1  0.59599243  0.31879364  0.60509797  1
  H  H141  1  0.60698399  0.28172134  0.62233234  1
  H  H142  1  0.56041668  0.27294062  0.64592279  1
  H  H143  1  0.56576376  0.23282604  0.66714152  1
  H  H144  1  0.51901984  0.22858129  0.67667587  1
  H  H145  1  0.52041643  0.18890054  0.70873981  1
  H  H146  1  0.46509918  0.15832874  0.65933569  1
  H  H147  1  0.57647847  0.29849297  0.56073841  1
  H  H148  1  0.59115716  0.26271229  0.57546148  1
  H  H149  1  0.54503453  0.25531608  0.59798638  1
  H  H150  1  0.55389772  0.21600120  0.61756109  1
  H  H151  1  0.50760539  0.21000399  0.62837547  1
  H  H152  1  0.51195135  0.16972342  0.66081500  1
  H  H153  1  0.63688579  0.53185834  0.29300391  1
  H  H154  1  0.64518867  0.42096319  0.41919024  1
  H  H155  1  0.68699298  0.45366015  0.36902460  1
  H  H156  1  0.64469847  0.45679639  0.37551655  1
  H  H157  1  0.68394957  0.49200091  0.32653140  1
  H  H158  1  0.64066136  0.49343824  0.33404376  1
  H  H159  1  0.67994159  0.52985854  0.28619584  1
  H  H160  1  0.65215728  0.55540151  0.33640614  1
  H  H161  1  0.66511669  0.44566702  0.45999184  1
  H  H162  1  0.70382881  0.47892517  0.41020163  1
  H  H163  1  0.66119268  0.48217347  0.41679272  1
  H  H164  1  0.70035371  0.51736581  0.36786451  1
  H  H165  1  0.65652570  0.51815248  0.37618393  1
  H  H166  1  0.69594488  0.55443470  0.32844990  1
  H  H167  1  0.64190118  0.54706078  0.67414710  1
  H  H168  1  0.64332562  0.42750545  0.57661750  1
  H  H169  1  0.69557177  0.47892401  0.57450291  1
  H  H170  1  0.65028515  0.47085790  0.59939465  1
  H  H171  1  0.69568630  0.51967938  0.61704197  1
  H  H172  1  0.64838838  0.51062262  0.63208761  1
  H  H173  1  0.69007865  0.55785781  0.66045661  1
  H  H174  1  0.63721903  0.52526371  0.71762136  1
  H  H175  1  0.66051310  0.41659030  0.60982835  1
  H  H176  1  0.69985567  0.46549609  0.62186850  1
  H  H177  1  0.65291218  0.45674170  0.64752980  1
  H  H178  1  0.69573520  0.50502096  0.66627042  1
  H  H179  1  0.64594357  0.49293080  0.67960387  1
  H  H180  1  0.68832713  0.53926033  0.70662209  1
  H  H181  1  0.84107198  0.37309327  0.26744821  1
  H  H182  1  0.72092440  0.34829753  0.38625394  1
  H  H183  1  0.76050821  0.35503326  0.43096990  1
  H  H184  1  0.76457365  0.35407398  0.35267787  1
  H  H185  1  0.80478168  0.36029380  0.39422027  1
  H  H186  1  0.80498564  0.36194379  0.31426431  1
  H  H187  1  0.84428517  0.36218605  0.34744270  1
  H  H188  1  0.86838278  0.40945564  0.27862811  1
  H  H189  1  0.73864210  0.38702874  0.38147231  1
  H  H190  1  0.77763391  0.39338816  0.42926010  1
  H  H191  1  0.78126005  0.39239716  0.35090500  1
  H  H192  1  0.82139560  0.39865108  0.39464409  1
  H  H193  1  0.82397355  0.40045912  0.31688007  1
  H  H194  1  0.86394966  0.40058297  0.35350363  1
  H  H195  1  1.00152572  0.14421117  0.96081162  1
  H  H196  1  0.03383265  0.18372879  0.03729714  1
  H  H197  1  0.00522600  0.12479494  0.04845662  1
  H  H198  1  0.02019125  0.19811356  0.95101841  1
  H  H199  1  0.10986919  0.05522765  0.97989276  1
  H  H200  1  0.08873659  0.99546054  0.02172999  1
  H  H201  1  0.05134225  0.01042382  0.01977267  1
  H  H202  1  0.13727423  0.03731285  0.96067005  1
  H  H203  1  0.90523690  0.98648377  -0.00459358  1
  H  H204  1  0.89609472  0.92537612  0.99270050  1
  H  H205  1  0.94632960  0.96879373  1.01624690  1
  H  H206  1  0.85278039  0.94287248  -0.00091921  1
  C  C207  1  0.96140662  0.00383824  0.96884441  1
  C  C208  1  0.06681018  0.05701605  0.00545417  1
  C  C209  1  0.03865664  0.05409991  1.00107911  1
  C  C210  1  0.01174642  0.02863133  0.99489798  1
  C  C211  1  0.98846307  0.03045422  0.98745600  1
  C  C212  1  0.99128881  0.05740471  0.99340755  1
  C  C213  1  0.01800643  0.08321399  1.00029147  1
  C  C214  1  0.04115726  0.08084376  1.00083507  1
  C  C215  1  0.02704409  0.11539583  1.00017060  1
  C  C216  1  0.87907058  0.38253035  0.73218827  1
  C  C217  1  0.86570276  0.35693254  0.75413236  1
  C  C218  1  0.87667565  0.35140814  0.79134277  1
  C  C219  1  0.85850807  0.32710595  0.81748843  1
  C  C220  1  0.86788972  0.32230952  0.85473353  1
  C  C221  1  0.89610348  0.34163792  0.86667982  1
  C  C222  1  0.91490113  0.36523022  0.84065702  1
  C  C223  1  0.90523652  0.37034888  0.80387439  1
  C  C224  1  0.88698214  0.31525793  0.93169993  1
  C  C225  1  0.90345782  0.31579371  0.96887004  1
  C  C226  1  0.91755817  0.30131079  0.96574890  1
  C  C227  1  0.93364239  0.30244237  1.00017097  1
  C  C228  1  0.93705317  0.31904183  0.03634269  1
  C  C229  1  0.92388420  0.33453122  0.03806367  1
  C  C230  1  0.90605374  0.33204393  0.00517114  1
  C  C231  1  0.88969249  0.34606036  0.00649499  1
  C  C232  1  0.91393372  0.28333784  0.92778698  1
  C  C233  1  0.95510496  0.31949089  0.07101068  1
  C  C234  1  0.94739077  0.28576272  0.99901238  1
  C  C235  1  0.99240403  0.29277924  0.99039062  1
  C  C236  1  0.97889341  0.26264707  0.99672651  1
  C  C237  1  0.99468087  0.25050289  0.99669218  1
  C  C238  1  0.02420006  0.26759809  0.98873827  1
  C  C239  1  0.03734823  0.29816716  0.98191599  1
  C  C240  1  0.02167765  0.31055074  0.98315614  1
  C  C241  1  0.03821999  0.25250864  0.98552169  1
  C  C242  1  0.02742513  0.22557738  0.00481585  1
  C  C243  1  0.92890764  0.35335543  0.07576707  1
  C  C244  1  0.90940596  0.34906225  0.14457146  1
  C  C245  1  0.92938679  0.37892838  0.15141235  1
  C  C246  1  0.92670161  0.39246993  0.18613479  1
  C  C247  1  0.90435500  0.37667818  0.21544923  1
  C  C248  1  0.88540195  0.34614021  0.20900379  1
  C  C249  1  0.88819325  0.33243704  0.17444163  1
  C  C250  1  0.90004342  0.39153808  0.24913043  1
  C  C251  1  0.87973467  0.37798855  0.27944419  1
  C  C252  1  0.46292042  0.15076236  0.27226016  1
  C  C253  1  0.45626057  0.12807091  0.24646761  1
  C  C254  1  0.43794919  0.11921372  0.21001258  1
  C  C255  1  0.43092692  0.09431366  0.18617760  1
  C  C256  1  0.41443427  0.08635020  0.15029769  1
  C  C257  1  0.40404989  0.10298546  0.13734706  1
  C  C258  1  0.40982666  0.12713366  0.16104854  1
  C  C259  1  0.42696481  0.13547408  0.19629332  1
  C  C260  1  0.38451839  0.07480071  0.07316003  1
  C  C261  1  0.36842244  0.07489614  0.03576976  1
  C  C262  1  0.33859479  0.05964471  0.03871869  1
  C  C263  1  0.32320983  0.05964766  0.00407975  1
  C  C264  1  0.33765195  0.07684074  0.96810714  1
  C  C265  1  0.36754060  0.09282582  0.96623806  1
  C  C266  1  0.38314741  0.09129244  0.99938021  1
  C  C267  1  0.41479172  0.10665248  0.99818430  1
  C  C268  1  0.32335004  0.04231645  0.07745549  1
  C  C269  1  0.32007092  0.07763987  0.93379730  1
  C  C270  1  0.29131299  0.04282318  0.00565911  1
  C  C271  1  0.25585899  0.05442686  0.01507894  1
  C  C272  1  0.23285009  0.02549980  0.00896849  1
  C  C273  1  0.20528755  0.01879865  0.00933484  1
  C  C274  1  0.19987357  0.04072297  0.01666546  1
  C  C275  1  0.22370402  0.06963189  0.02336434  1
  C  C276  1  0.25109561  0.07640400  0.02257984  1
  C  C277  1  0.17243290  0.03672676  0.01703627  1
  C  C278  1  0.14603348  1.01374736  0.00440583  1
  C  C279  1  0.38248886  0.11187032  0.92844769  1
  C  C280  1  0.39873041  0.10977529  0.86009195  1
  C  C281  1  0.40958055  0.13951020  0.85503030  1
  C  C282  1  0.42800971  0.15499505  0.82210293  1
  C  C283  1  0.43572229  0.14139271  0.79252451  1
  C  C284  1  0.42233639  0.11069339  0.79613225  1
  C  C285  1  0.40401046  0.09510040  0.82947914  1
  C  C286  1  0.45602723  0.15953543  0.75975851  1
  C  C287  1  0.46365309  0.15075769  0.72544718  1
  C  C288  1  0.66510318  0.57076134  0.72895442  1
  C  C289  1  0.68687813  0.57902749  0.75576989  1
  C  C290  1  0.69430582  0.59791974  0.79219605  1
  C  C291  1  0.71754718  0.60431556  0.81725857  1
  C  C292  1  0.72471414  0.62099747  0.85346213  1
  C  C293  1  0.70881236  0.63213122  0.86562497  1
  C  C294  1  0.68641413  0.62724463  0.84068655  1
  C  C295  1  0.67901866  0.61012769  0.80477192  1
  C  C296  1  0.73490473  0.65046235  0.93049644  1
  C  C297  1  0.73525191  0.66742176  0.96780464  1
  C  C298  1  0.75069560  0.69824399  0.96445912  1
  C  C299  1  0.75034571  0.71439678  0.99858631  1
  C  C300  1  0.73394343  0.70017225  0.03494169  1
  C  C301  1  0.71734750  0.66923829  0.03668163  1
  C  C302  1  0.71884255  0.65266497  0.00404887  1
  C  C303  1  0.70364266  0.61990538  0.00565864  1
  C  C304  1  0.76866400  0.71356076  0.92636557  1
  C  C305  1  0.73499917  0.71918704  0.06979654  1
  C  C306  1  0.76806477  0.74720573  0.99710333  1
  C  C307  1  0.76534301  0.78845758  0.98914605  1
  C  C308  1  0.79469011  0.80560872  0.99414633  1
  C  C309  1  0.80909099  0.83579646  0.99625707  1
  C  C310  1  0.79505929  0.85030480  0.99145879  1
  C  C311  1  0.76523447  0.83233800  0.98493126  1
  C  C312  1  0.75065771  0.80194792  0.98388831  1
  C  C313  1  0.81166976  0.88188531  0.99292810  1
  C  C314  1  0.84071800  0.89755707  0.99752430  1
  C  C315  1  0.69863997  0.65434976  0.07443722  1
  C  C316  1  0.70176359  0.63783192  0.14283437  1
  C  C317  1  0.67322193  0.62662416  0.15067991  1
  C  C318  1  0.65979506  0.60884966  0.18546706  1
  C  C319  1  0.67428665  0.60165519  0.21340269  1
  C  C320  1  0.70350317  0.61449121  0.20574676  1
  C  C321  1  0.71720831  0.63294978  0.17157589  1
  C  C322  1  0.65956761  0.58129463  0.24797824  1
  C  C323  1  0.67253689  0.57559587  0.27844398  1
  C  C324  1  0.72286727  0.37041514  0.44344033  1
  C  C325  1  0.68002136  0.41996446  0.44012804  1
  C  C326  1  0.62304172  0.31883772  0.44313354  1
  C  C327  1  0.72172288  0.37096507  0.56665589  1
  C  C328  1  0.67422035  0.42338545  0.54677940  1
  C  C329  1  0.62020353  0.32173569  0.55162288  1
  C  C330  1  0.86259237  0.39426531  0.71532582  1
  C  C331  1  0.73709671  0.37176387  0.60633952  1
  C  C332  1  0.76326177  0.37190852  0.59424385  1
  C  C333  1  0.77963510  0.37533600  0.63385685  1
  C  C334  1  0.80717310  0.37704929  0.62769485  1
  C  C335  1  0.82215395  0.38371979  0.66989240  1
  C  C336  1  0.84895762  0.38368923  0.67128336  1
  C  C337  1  0.48647471  0.16301362  0.30354562  1
  C  C338  1  0.60238484  0.28770016  0.42849880  1
  C  C339  1  0.57973466  0.28229155  0.39725774  1
  C  C340  1  0.56298656  0.24996173  0.38498771  1
  C  C341  1  0.53915458  0.24012418  0.35366346  1
  C  C342  1  0.52429404  0.20748053  0.34418184  1
  C  C343  1  0.50039213  0.19570020  0.31258732  1
  C  C344  1  0.47685835  0.17047492  0.68768603  1
  C  C345  1  0.59468984  0.30401590  0.58046297  1
  C  C346  1  0.59010870  0.27631452  0.59981527  1
  C  C347  1  0.56103602  0.25910579  0.62134011  1
  C  C348  1  0.55180504  0.22957789  0.64080116  1
  C  C349  1  0.52101496  0.21373659  0.65581216  1
  C  C350  1  0.50886710  0.18473684  0.67911778  1
  C  C351  1  0.65740668  0.54915532  0.30643979  1
  C  C352  1  0.66689263  0.43698931  0.42981210  1
  C  C353  1  0.68288101  0.46178557  0.39796752  1
  C  C354  1  0.66556016  0.47446945  0.38760846  1
  C  C355  1  0.67956189  0.49949369  0.35589367  1
  C  C356  1  0.66129935  0.51124432  0.34657388  1
  C  C357  1  0.67528534  0.53680199  0.31585806  1
  C  C358  1  0.65355704  0.54504726  0.69987455  1
  C  C359  1  0.66421254  0.43218457  0.58474446  1
  C  C360  1  0.68373453  0.46364314  0.60060295  1
  C  C361  1  0.66565202  0.47265091  0.62238933  1
  C  C362  1  0.68172545  0.50339692  0.64101046  1
  C  C363  1  0.66114341  0.51064114  0.65812837  1
  C  C364  1  0.67530899  0.53961385  0.68148233  1
  C  C365  1  0.85941297  0.38662988  0.28857287  1
  C  C366  1  0.73559858  0.36932222  0.40165131  1
  C  C367  1  0.76384543  0.37316342  0.41116729  1
  C  C368  1  0.77857178  0.37442680  0.37052401  1
  C  C369  1  0.80727289  0.37871988  0.37612798  1
  C  C370  1  0.82049970  0.38100647  0.33333348  1
  C  C371  1  0.84808045  0.38245610  0.33355030  1
  C  C372  1  0.01051518  0.12750811  0.01496914  1
  C  C373  1  0.01029074  0.14904054  0.99258389  1
  C  C374  1  0.02241030  0.17802164  0.00743223  1
  C  C375  1  0.02369572  0.20057112  0.98500061  1
  C  C376  1  0.06840173  0.03093403  0.00552760  1
  C  C377  1  0.09352607  0.03434555  0.99454883  1
  C  C378  1  0.10200675  0.01472859  0.00183258  1
  C  C379  1  0.12786196  0.02108740  0.98620037  1
  C  C380  1  0.93963297  0.98077946  0.99797340  1
  C  C381  1  0.91128389  0.97072891  -0.00267521  1
  C  C382  1  0.88937848  0.94050942  0.99664572  1
  C  C383  1  0.86029331  0.92836068  -0.00257367  1
  O  O384  1  0.90675810  0.33850072  0.90283101  1
  O  O385  1  0.91012004  0.33503727  0.10988736  1
  O  O386  1  0.97775557  0.30566156  0.99128850  1
  O  O387  1  0.38723500  0.09631452  0.10314392  1
  O  O388  1  0.38256729  0.09438834  0.89401087  1
  O  O389  1  0.28358049  0.06351009  0.01484962  1
  O  O390  1  0.71471109  0.64880428  0.90054050  1
  O  O391  1  0.71573884  0.65432908  0.10834568  1
  O  O392  1  0.75067039  0.75870243  0.98951675  1
  O  O393  1  0.72997513  0.39564451  0.45544337  1
  O  O394  1  0.70812256  0.34609737  0.46272965  1
  O  O395  1  0.66224817  0.39170134  0.43755825  1
  O  O396  1  0.70532930  0.43304646  0.45109025  1
  O  O397  1  0.64851008  0.32704671  0.44818603  1
  O  O398  1  0.61335911  0.33449015  0.45193501  1
  O  O399  1  0.73115348  0.39537245  0.54889989  1
  O  O400  1  0.70194604  0.34539677  0.55517494  1
  O  O401  1  0.65494560  0.40836316  0.51950725  1
  O  O402  1  0.69981348  0.43136364  0.54519184  1
  O  O403  1  0.63452087  0.31169030  0.54121216  1
  O  O404  1  0.62370024  0.34589559  0.53915771  1
  O  O405  1  0.67695562  0.37345715  0.50731705  1
