# generated using pymatgen
data_ZnH72(C61N2)3
_symmetry_space_group_name_H-M   'P 1'
_cell_length_a   55.74858529
_cell_length_b   54.68149079
_cell_length_c   31.14937450
_cell_angle_alpha   89.87425187
_cell_angle_beta   90.75683688
_cell_angle_gamma   123.48927053
_symmetry_Int_Tables_number   1
_chemical_formula_structural   ZnH72(C61N2)3
_chemical_formula_sum   'Zn1 H72 C183 N6'
_cell_volume   79184.09257687
_cell_formula_units_Z   1
loop_
 _symmetry_equiv_pos_site_id
 _symmetry_equiv_pos_as_xyz
  1  'x, y, z'
loop_
 _atom_site_type_symbol
 _atom_site_label
 _atom_site_symmetry_multiplicity
 _atom_site_fract_x
 _atom_site_fract_y
 _atom_site_fract_z
 _atom_site_occupancy
  Zn  Zn0  1  0.66504306  0.36023931  0.50858741  1
  H  H1  1  0.07787561  0.08460468  0.98650660  1
  H  H2  1  0.07175117  0.07581712  0.04177813  1
  H  H3  1  0.01473265  0.00631310  0.99624972  1
  H  H4  1  0.04566062  0.09717703  0.00782898  1
  H  H5  1  0.95567027  0.03383132  0.98641688  1
  H  H6  1  0.01293878  0.10823888  0.03261673  1
  H  H7  1  0.01645606  0.11185807  0.97542377  1
  H  H8  1  0.95114406  0.99015671  0.94236260  1
  H  H9  1  0.97047557  0.97531271  0.96318545  1
  H  H10  1  0.91135865  0.31984221  0.08445929  1
  H  H11  1  0.96850963  0.28352856  0.08567938  1
  H  H12  1  0.99385068  0.25707374  0.07973917  1
  H  H13  1  0.97576894  0.24651937  0.94322438  1
  H  H14  1  0.95016894  0.27246040  0.94981844  1
  H  H15  1  0.91555755  0.31916539  0.94728953  1
  H  H16  1  0.90057311  0.35093657  0.81419538  1
  H  H17  1  0.87892448  0.35772800  0.74841636  1
  H  H18  1  0.83105121  0.38005085  0.82746566  1
  H  H19  1  0.84884330  0.36830832  0.89291831  1
  H  H20  1  0.87495300  0.35757351  0.00821767  1
  H  H21  1  0.84585883  0.36828616  0.13232717  1
  H  H22  1  0.83381138  0.38420970  0.19924074  1
  H  H23  1  0.88324260  0.35961602  0.27386858  1
  H  H24  1  0.89749500  0.34653800  0.20603543  1
  H  H25  1  0.35939207  0.09979125  0.93365304  1
  H  H26  1  0.26332412  0.05931996  0.93230316  1
  H  H27  1  0.21031073  0.03814969  0.93621102  1
  H  H28  1  0.21348453  0.02723212  0.07297718  1
  H  H29  1  0.26611945  0.04700828  0.06821827  1
  H  H30  1  0.35440554  0.09903309  0.07080944  1
  H  H31  1  0.39985854  0.12865600  0.20091626  1
  H  H32  1  0.42992682  0.14358422  0.26875937  1
  H  H33  1  0.50372492  0.16416963  0.19427556  1
  H  H34  1  0.47278218  0.14632215  0.12772052  1
  H  H35  1  0.43667656  0.13827842  0.01074737  1
  H  H36  1  0.47915785  0.14825055  0.88445898  1
  H  H37  1  0.50861232  0.17049596  0.81873377  1
  H  H38  1  0.43212125  0.14682130  0.74727799  1
  H  H39  1  0.40303221  0.12597011  0.81355912  1
  H  H40  1  0.71015904  0.65952766  0.07810312  1
  H  H41  1  0.75077549  0.75935900  0.07814941  1
  H  H42  1  0.77983945  0.81437696  0.07244016  1
  H  H43  1  0.78945262  0.80729792  0.93686927  1
  H  H44  1  0.76083178  0.75244104  0.94293659  1
  H  H45  1  0.71103295  0.66465478  0.94075436  1
  H  H46  1  0.67732403  0.61353042  0.80810508  1
  H  H47  1  0.66935798  0.58333259  0.74299530  1
  H  H48  1  0.64321961  0.50900192  0.82325071  1
  H  H49  1  0.65634070  0.54050240  0.88833903  1
  H  H50  1  0.66973875  0.58059153  0.00218609  1
  H  H51  1  0.65600790  0.53683308  0.12532789  1
  H  H52  1  0.63910694  0.50675204  0.19219548  1
  H  H53  1  0.66752922  0.58501889  0.26664962  1
  H  H54  1  0.68145353  0.61435103  0.19886708  1
  H  H55  1  0.62814813  0.31548730  0.58849379  1
  H  H56  1  0.57159784  0.35202578  0.52838853  1
  H  H57  1  0.54961788  0.31290001  0.58211657  1
  H  H58  1  0.68108716  0.40597878  0.42700966  1
  H  H59  1  0.59606563  0.39176022  0.49952751  1
  H  H60  1  0.62088794  0.43084062  0.44555546  1
  H  H61  1  0.65868517  0.39246166  0.59574723  1
  H  H62  1  0.75764248  0.45632991  0.54499173  1
  H  H63  1  0.74096020  0.47412550  0.60178971  1
  H  H64  1  0.62322155  0.33299227  0.42162336  1
  H  H65  1  0.63104643  0.25450673  0.48413143  1
  H  H66  1  0.59659019  0.24240066  0.42467886  1
  H  H67  1  0.69482277  0.35064045  0.42571670  1
  H  H68  1  0.77112266  0.43753890  0.50545538  1
  H  H69  1  0.78457009  0.41784021  0.44668807  1
  H  H70  1  0.70289626  0.36324404  0.59340150  1
  H  H71  1  0.66503936  0.26815233  0.52299296  1
  H  H72  1  0.70051085  0.28365763  0.58139294  1
  C  C73  1  0.95911700  0.98594943  0.97305637  1
  C  C74  1  0.06613462  0.06535162  0.00884999  1
  C  C75  1  0.03399141  0.05286879  0.00212644  1
  C  C76  1  0.01079310  0.02375448  0.99688423  1
  C  C77  1  0.98241955  0.01650542  0.99077584  1
  C  C78  1  0.97738784  0.03911592  0.99210969  1
  C  C79  1  0.00024971  0.06839323  0.99902135  1
  C  C80  1  0.02784586  0.07435611  0.00331877  1
  C  C81  1  1.00120105  0.09727437  1.00148640  1
  C  C82  1  0.90642455  0.32511328  0.05317805  1
  C  C83  1  0.91424776  0.31716978  0.01631949  1
  C  C84  1  0.92843667  0.30254849  0.02130286  1
  C  C85  1  0.94160988  0.29067108  0.02303161  1
  C  C86  1  0.95684893  0.27742957  0.01868796  1
  C  C87  1  0.97025344  0.27469309  0.05545883  1
  C  C88  1  0.98337391  0.25983881  0.05218380  1
  C  C89  1  0.98179418  0.24612498  0.01239322  1
  C  C90  1  0.97298420  0.25379639  0.97415349  1
  C  C91  1  0.95971542  0.26843724  0.97741524  1
  C  C92  1  0.90899325  0.32490964  0.97629485  1
  C  C93  1  0.89542586  0.33998760  0.97292085  1
  C  C94  1  0.89071443  0.34691170  0.93116851  1
  C  C95  1  0.88532195  0.35236360  0.89555145  1
  C  C96  1  0.87522372  0.35794048  0.85760357  1
  C  C97  1  0.88414729  0.35585092  0.81632564  1
  C  C98  1  0.87147221  0.35878518  0.78004604  1
  C  C99  1  0.84876714  0.36336777  0.78343715  1
  C  C100  1  0.84423301  0.37107489  0.82498773  1
  C  C101  1  0.85537446  0.36639310  0.86095975  1
  C  C102  1  0.88652511  0.34681438  0.01037999  1
  C  C103  1  0.89247687  0.33977425  0.05065874  1
  C  C104  1  0.88549478  0.34629125  0.09052971  1
  C  C105  1  0.87979580  0.35124801  0.12584182  1
  C  C106  1  0.87259514  0.35708102  0.16568081  1
  C  C107  1  0.85393554  0.36710610  0.16374852  1
  C  C108  1  0.84630056  0.37438299  0.20039650  1
  C  C109  1  0.85419313  0.36846727  0.24122576  1
  C  C110  1  0.87464082  0.36060899  0.24283618  1
  C  C111  1  0.88322589  0.35432012  0.20560059  1
  C  C112  1  0.36997137  0.10504007  0.96504187  1
  C  C113  1  0.35331423  0.09674093  0.00168828  1
  C  C114  1  0.32311920  0.08094733  -0.00208837  1
  C  C115  1  0.29693307  0.06789750  -0.00246969  1
  C  C116  1  0.26725231  0.05479311  0.00021812  1
  C  C117  1  0.25163733  0.05186492  0.96231349  1
  C  C118  1  0.22318678  0.04159528  0.96492053  1
  C  C119  1  0.21023680  0.03685451  0.00606299  1
  C  C120  1  0.22485997  0.03536052  0.04284266  1
  C  C121  1  0.25327449  0.04504721  0.04016804  1
  C  C122  1  0.36699956  0.10477297  0.04168270  1
  C  C123  1  0.39687528  0.12008912  0.04493507  1
  C  C124  1  0.40874538  0.12671463  0.08679638  1
  C  C125  1  0.41964816  0.13201321  0.12266755  1
  C  C126  1  0.43542154  0.13881388  0.16101561  1
  C  C127  1  0.42257684  0.13659423  0.20082303  1
  C  C128  1  0.43923982  0.14564287  0.23742105  1
  C  C129  1  0.46945916  0.15902340  0.23417947  1
  C  C130  1  0.48115487  0.15677212  0.19488719  1
  C  C131  1  0.46440997  0.14699322  0.15878333  1
  C  C132  1  0.41342104  0.12712686  0.00796946  1
  C  C133  1  0.39988795  0.11974400  0.96764011  1
  C  C134  1  0.41445930  0.12614313  0.92835031  1
  C  C135  1  0.42628518  0.13156022  0.89363430  1
  C  C136  1  0.44016883  0.13924241  0.85399995  1
  C  C137  1  0.46971541  0.14952182  0.85440265  1
  C  C138  1  0.48579958  0.16215065  0.81865378  1
  C  C139  1  0.47316800  0.16589080  0.78108317  1
  C  C140  1  0.44253114  0.14919291  0.77820099  1
  C  C141  1  0.42632354  0.13684156  0.81436283  1
  C  C142  1  0.70448603  0.64871501  0.04682572  1
  C  C143  1  0.71281941  0.66555944  0.00988213  1
  C  C144  1  0.72835460  0.69631216  0.01419482  1
  C  C145  1  0.74129024  0.72301503  0.01514908  1
  C  C146  1  0.75615266  0.75347659  0.01153656  1
  C  C147  1  0.76012344  0.77063949  0.04806960  1
  C  C148  1  0.77668926  0.80052720  0.04505670  1
  C  C149  1  0.79132412  0.81381899  0.00607444  1
  C  C150  1  0.78216556  0.79646353  0.96776489  1
  C  C151  1  0.76579540  0.76664161  0.97068742  1
  C  C152  1  0.70479360  0.65159453  0.96988807  1
  C  C153  1  0.68880601  0.62106893  0.96665222  1
  C  C154  1  0.68136637  0.60834930  0.92510270  1
  C  C155  1  0.67525690  0.59632518  0.88987452  1
  C  C156  1  0.66878883  0.57945931  0.85230153  1
  C  C157  1  0.67142745  0.59098023  0.81072877  1
  C  C158  1  0.66792742  0.57447231  0.77486398  1
  C  C159  1  0.66226622  0.54579638  0.77910864  1
  C  C160  1  0.65346060  0.53259954  0.82050808  1
  C  C161  1  0.65879329  0.54941260  0.85619542  1
  C  C162  1  0.68137301  0.60437710  0.00423820  1
  C  C163  1  0.68888922  0.61821008  0.04445965  1
  C  C164  1  0.68174735  0.60349212  0.08415591  1
  C  C165  1  0.67594793  0.59133762  0.11897560  1
  C  C166  1  0.66927009  0.57699717  0.15856065  1
  C  C167  1  0.65775329  0.54651065  0.15665489  1
  C  C168  1  0.65000290  0.53051041  0.19329235  1
  C  C169  1  0.65707213  0.54514511  0.23409682  1
  C  C170  1  0.66597860  0.57502622  0.23570198  1
  C  C171  1  0.67268966  0.59094470  0.19846573  1
  C  C172  1  0.61196548  0.35494098  0.52723442  1
  C  C173  1  0.61513329  0.32308321  0.57509786  1
  C  C174  1  0.58427985  0.34430818  0.54205927  1
  C  C175  1  0.58693380  0.31075874  0.59084406  1
  C  C176  1  0.57180059  0.32225315  0.57245616  1
  C  C177  1  0.64558084  0.30040211  0.48688252  1
  C  C178  1  0.62464869  0.31550088  0.43575896  1
  C  C179  1  0.62949388  0.27179400  0.47019446  1
  C  C180  1  0.60730565  0.28673554  0.41850568  1
  C  C181  1  0.61017680  0.26485126  0.43689235  1
  C  C182  1  0.71642269  0.41519130  0.53533313  1
  C  C183  1  0.68003581  0.40774272  0.58256790  1
  C  C184  1  0.73547964  0.44236162  0.55524355  1
  C  C185  1  0.69696271  0.43660284  0.60006087  1
  C  C186  1  0.72597923  0.45277590  0.58688032  1
  C  C187  1  0.72529804  0.40446839  0.49950977  1
  C  C188  1  0.71198641  0.36967585  0.44352911  1
  C  C189  1  0.75421591  0.41849965  0.48789535  1
  C  C190  1  0.74093035  0.38239962  0.43130146  1
  C  C191  1  0.76195682  0.40749057  0.45487240  1
  C  C192  1  0.66577798  0.30826492  0.52315138  1
  C  C193  1  0.69593896  0.34278475  0.57655308  1
  C  C194  1  0.67367139  0.28940727  0.53799674  1
  C  C195  1  0.70720686  0.32622419  0.59030684  1
  C  C196  1  0.69403131  0.29824972  0.57067567  1
  C  C197  1  0.62542577  0.37763457  0.49394182  1
  C  C198  1  0.66171050  0.40232551  0.44188755  1
  C  C199  1  0.61436045  0.39445302  0.48291310  1
  C  C200  1  0.64996720  0.41824296  0.42729487  1
  C  C201  1  0.62750469  0.41568536  0.45174890  1
  C  C202  1  0.83079704  0.36116551  0.74960177  1
  C  C203  1  0.81190556  0.35766884  0.72412555  1
  C  C204  1  0.79091650  0.35339247  0.69776182  1
  C  C205  1  0.77083881  0.34847518  0.67332289  1
  C  C206  1  0.74935789  0.34252626  0.64666855  1
  C  C207  1  0.72940114  0.33617561  0.62128996  1
  C  C208  1  0.48881627  0.17520016  0.26730860  1
  C  C209  1  0.50772646  0.19346633  0.29207286  1
  C  C210  1  0.52856539  0.21443722  0.31645812  1
  C  C211  1  0.54778571  0.23531833  0.33818623  1
  C  C212  1  0.56813587  0.25723144  0.36188683  1
  C  C213  1  0.58708934  0.27774959  0.38464795  1
  C  C214  1  0.49125879  0.18528967  0.74940303  1
  C  C215  1  0.50794985  0.20485181  0.72452465  1
  C  C216  1  0.52608384  0.22630378  0.69847870  1
  C  C217  1  0.54265239  0.24672022  0.67422193  1
  C  C218  1  0.55958726  0.26840138  0.64748264  1
  C  C219  1  0.57420754  0.28839967  0.62175050  1
  C  C220  1  0.65528532  0.52868116  0.26951312  1
  C  C221  1  0.65471034  0.51018372  0.29321662  1
  C  C222  1  0.65488205  0.49043764  0.31775047  1
  C  C223  1  0.65639013  0.47264784  0.34069661  1
  C  C224  1  0.65786192  0.45421843  0.36656765  1
  C  C225  1  0.65874344  0.43716108  0.39196646  1
  C  C226  1  0.66444147  0.52954679  0.74639762  1
  C  C227  1  0.66761062  0.51333698  0.72284040  1
  C  C228  1  0.67146478  0.49575527  0.69868540  1
  C  C229  1  0.67579545  0.47968820  0.67638924  1
  C  C230  1  0.68097505  0.46313033  0.65203478  1
  C  C231  1  0.68678783  0.44877519  0.62869999  1
  C  C232  1  0.84049954  0.37040313  0.27686881  1
  C  C233  1  0.82353983  0.37122817  0.30107634  1
  C  C234  1  0.80462989  0.37152992  0.32604083  1
  C  C235  1  0.78652815  0.37139955  0.34919427  1
  C  C236  1  0.76747831  0.37149948  0.37409515  1
  C  C237  1  0.75049939  0.37249595  0.39827061  1
  C  C238  1  0.97913449  0.10342980  -0.00016638  1
  C  C239  1  0.97933707  0.12641447  0.00234282  1
  C  C240  1  0.98178837  0.15194909  0.00512974  1
  C  C241  1  0.98519850  0.17637947  0.00748901  1
  C  C242  1  0.98727545  0.20166206  0.00947954  1
  C  C243  1  0.98733882  0.22425676  0.01078405  1
  C  C244  1  0.07732629  0.04750363  0.00445247  1
  C  C245  1  0.09642234  0.04241420  0.00401389  1
  C  C246  1  0.11868080  0.03944129  0.00463921  1
  C  C247  1  0.13988709  0.03768059  0.00606043  1
  C  C248  1  0.16263237  0.03578515  0.00756248  1
  C  C249  1  0.18404671  0.03449539  0.00814110  1
  C  C250  1  0.93469723  0.96579299  -0.00185532  1
  C  C251  1  0.91136510  0.94260248  0.00543486  1
  C  C252  1  0.88612538  0.91682081  0.00800170  1
  C  C253  1  0.86267947  0.89289835  0.00665596  1
  C  C254  1  0.83768976  0.86713486  0.00580763  1
  C  C255  1  0.81473614  0.84290754  0.00522867  1
  N  N256  1  0.62627189  0.34322969  0.54428717  1
  N  N257  1  0.68900654  0.39846626  0.55079976  1
  N  N258  1  0.64987582  0.38336170  0.47411371  1
  N  N259  1  0.64229538  0.32140290  0.46905464  1
  N  N260  1  0.70510454  0.38013675  0.47639859  1
  N  N261  1  0.67738315  0.33464470  0.54375263  1
