# generated using pymatgen
data_H97C123(NO5)2
_symmetry_space_group_name_H-M   'P 1'
_cell_length_a   63.79796734
_cell_length_b   64.54090040
_cell_length_c   32.78046675
_cell_angle_alpha   89.78185883
_cell_angle_beta   89.94902722
_cell_angle_gamma   90.20996748
_symmetry_Int_Tables_number   1
_chemical_formula_structural   H97C123(NO5)2
_chemical_formula_sum   'H194 C246 N4 O20'
_cell_volume   134974.19741868
_cell_formula_units_Z   2
loop_
 _symmetry_equiv_pos_site_id
 _symmetry_equiv_pos_as_xyz
  1  'x, y, z'
loop_
 _atom_site_type_symbol
 _atom_site_label
 _atom_site_symmetry_multiplicity
 _atom_site_fract_x
 _atom_site_fract_y
 _atom_site_fract_z
 _atom_site_occupancy
  H  H0  1  0.01413497  0.54081195  0.03221934  1
  H  H1  1  0.98684082  0.46285073  0.96711148  1
  H  H2  1  0.99949845  0.48024636  0.03912033  1
  H  H3  1  0.96406140  0.48833665  0.00333561  1
  H  H4  1  0.97262181  0.51427050  -0.00172757  1
  H  H5  1  0.00075899  0.52357741  0.96048720  1
  H  H6  1  0.03655064  0.51540330  0.99556715  1
  H  H7  1  0.02792348  0.48947938  1.00035091  1
  H  H8  1  0.46123296  0.98827194  0.96773902  1
  H  H9  1  0.54007674  0.01528751  0.03346345  1
  H  H10  1  0.52246720  0.00288369  0.96103764  1
  H  H11  1  0.51421655  0.03780541  0.99696176  1
  H  H12  1  0.48801972  0.02927435  1.00194142  1
  H  H13  1  0.47863249  1.00154262  0.03987370  1
  H  H14  1  0.48698898  0.96622207  0.00475543  1
  H  H15  1  0.51317230  0.97482753  0.00010569  1
  H  H16  1  0.51195517  0.56009317  0.53550229  1
  H  H17  1  0.45250081  0.51332938  0.56095024  1
  H  H18  1  0.47287018  0.49516226  0.56639272  1
  H  H19  1  0.46985163  0.52761888  0.49796842  1
  H  H20  1  0.49012296  0.51014146  0.50257010  1
  H  H21  1  0.48139045  0.54522307  0.56393504  1
  H  H22  1  0.50276372  0.52785734  0.56670034  1
  H  H23  1  0.51093199  0.52886369  0.47007922  1
  H  H24  1  0.52808827  0.55049785  0.47302070  1
  H  H25  1  0.47462277  0.48682069  0.46656667  1
  H  H26  1  0.45639156  0.46655130  0.47423571  1
  H  H27  1  0.44722427  0.51626438  0.47471588  1
  H  H28  1  0.43903386  0.49178636  0.45855379  1
  H  H29  1  0.47582919  0.55269058  0.48426719  1
  H  H30  1  0.49802683  0.56347409  0.45989402  1
  H  H31  1  0.49076376  0.44401315  0.46705048  1
  H  H32  1  0.55086311  0.49012539  0.44548120  1
  H  H33  1  0.53055168  0.50822464  0.43938022  1
  H  H34  1  0.53320514  0.47511268  0.50667085  1
  H  H35  1  0.51317549  0.49310790  0.50354682  1
  H  H36  1  0.52107142  0.45963725  0.43857134  1
  H  H37  1  0.49980738  0.47710628  0.43854754  1
  H  H38  1  0.49251388  0.47401433  0.53476683  1
  H  H39  1  0.47564200  0.45215250  0.53150236  1
  H  H40  1  0.52777633  0.51672547  0.53968699  1
  H  H41  1  0.54610846  0.53691858  0.53241169  1
  H  H42  1  0.55481068  0.49088828  0.53965646  1
  H  H43  1  0.56905841  0.51422856  0.54181460  1
  H  H44  1  0.52964931  0.44762022  0.50655539  1
  H  H45  1  0.50964098  0.44232328  0.54284137  1
  H  H46  1  0.09925705  0.55407779  0.25883490  1
  H  H47  1  0.09535265  0.50661600  0.27392583  1
  H  H48  1  0.11384466  0.49085542  0.32716174  1
  H  H49  1  0.14049887  0.49135568  0.38136824  1
  H  H50  1  0.14746762  0.55749773  0.36632746  1
  H  H51  1  0.12166211  0.55698508  0.30988747  1
  H  H52  1  0.16979703  0.49516154  0.41719464  1
  H  H53  1  0.14643317  0.50218772  0.44283103  1
  H  H54  1  0.13431134  0.53184265  0.52999635  1
  H  H55  1  0.13514018  0.50781585  0.50491354  1
  H  H56  1  0.13425235  0.53099746  0.47597465  1
  H  H57  1  0.19814626  0.50291521  0.40527889  1
  H  H58  1  0.21223637  0.48773474  0.44090397  1
  H  H59  1  0.22239565  0.51177651  0.42349602  1
  H  H60  1  0.20346066  0.54996447  0.58933502  1
  H  H61  1  0.22284863  0.55490221  0.55150034  1
  H  H62  1  0.22276638  0.53131512  0.57893779  1
  H  H63  1  0.23901222  0.51785953  0.52821395  1
  H  H64  1  0.23796340  0.51148229  0.47557181  1
  H  H65  1  0.26913751  0.51326400  0.49481969  1
  H  H66  1  0.30691361  0.52010605  0.49794536  1
  H  H67  1  0.29560753  0.58564425  0.48347109  1
  H  H68  1  0.25744661  0.57857452  0.47774042  1
  H  H69  1  0.33160720  0.57237680  0.48690584  1
  H  H70  1  0.33936487  0.53304839  0.53556569  1
  H  H71  1  0.17500071  0.56029132  0.57599586  1
  H  H72  1  0.15024538  0.55185549  0.55845081  1
  H  H73  1  0.14590309  0.56945333  0.61590063  1
  H  H74  1  0.11840889  0.57477822  0.66723262  1
  H  H75  1  0.12474760  0.51067613  0.70598447  1
  H  H76  1  0.15153217  0.50555034  0.65317925  1
  H  H77  1  0.09693657  0.56202129  0.72544726  1
  H  H78  1  0.10375761  0.51542503  0.74589879  1
  H  H79  1  0.52027457  0.10586934  0.26090339  1
  H  H80  1  0.56659968  0.09209003  0.27133486  1
  H  H81  1  0.58568343  0.10893837  0.32768562  1
  H  H82  1  0.58771703  0.13427821  0.38308204  1
  H  H83  1  0.52270922  0.14985219  0.36423359  1
  H  H84  1  0.52050167  0.12478229  0.30813733  1
  H  H85  1  0.58569771  0.16794876  0.41835301  1
  H  H86  1  0.57720328  0.14558730  0.44501564  1
  H  H87  1  0.54629517  0.13556051  0.53174369  1
  H  H88  1  0.57086905  0.13550611  0.50736291  1
  H  H89  1  0.54767802  0.13469454  0.47779090  1
  H  H90  1  0.57634647  0.19638429  0.40262414  1
  H  H91  1  0.59274846  0.20933104  0.43786238  1
  H  H92  1  0.56930984  0.22104983  0.42040829  1
  H  H93  1  0.52967098  0.20484621  0.58747700  1
  H  H94  1  0.52499483  0.22364438  0.54906622  1
  H  H95  1  0.54906627  0.22332763  0.57564125  1
  H  H96  1  0.56237632  0.23848798  0.52264651  1
  H  H97  1  0.56654918  0.23761278  0.46909433  1
  H  H98  1  0.56606437  0.26874989  0.49474586  1
  H  H99  1  0.56002529  0.30623475  0.49625929  1
  H  H100  1  0.49355138  0.29616067  0.48275955  1
  H  H101  1  0.49975289  0.25831590  0.47799263  1
  H  H102  1  0.50772794  0.33198107  0.48697233  1
  H  H103  1  0.55120122  0.33550786  0.52643016  1
  H  H104  1  0.52144181  0.17712396  0.58069441  1
  H  H105  1  0.52675924  0.15235239  0.56073320  1
  H  H106  1  0.51035745  0.15122490  0.61894836  1
  H  H107  1  0.50188157  0.12386692  0.66883412  1
  H  H108  1  0.56708360  0.12151419  0.70493102  1
  H  H109  1  0.57561935  0.14757606  0.65196565  1
  H  H110  1  0.51100739  0.10172113  0.72387441  1
  H  H111  1  0.55775651  0.09847421  0.74929975  1
  H  H112  1  0.89624262  0.48159531  0.73852794  1
  H  H113  1  0.91046693  0.43580288  0.72950080  1
  H  H114  1  0.89366682  0.41670691  0.67326450  1
  H  H115  1  0.86813858  0.41453342  0.61747028  1
  H  H116  1  0.85224589  0.47884268  0.63504717  1
  H  H117  1  0.87746799  0.48122120  0.69152412  1
  H  H118  1  0.83504499  0.41615376  0.58130490  1
  H  H119  1  0.85773608  0.42502002  0.55538952  1
  H  H120  1  0.86774421  0.45573467  0.46854844  1
  H  H121  1  0.86796620  0.43138598  0.49286330  1
  H  H122  1  0.86858729  0.45424955  0.52250075  1
  H  H123  1  0.80630544  0.42549208  0.59729579  1
  H  H124  1  0.79305733  0.40921619  0.56237893  1
  H  H125  1  0.78141192  0.43254985  0.57930809  1
  H  H126  1  0.79755119  0.47214494  0.41277847  1
  H  H127  1  0.77871792  0.47671462  0.45145228  1
  H  H128  1  0.77873672  0.45307411  0.42448072  1
  H  H129  1  0.76354128  0.43943512  0.47671033  1
  H  H130  1  0.76470066  0.43439197  0.52999476  1
  H  H131  1  0.73305473  0.43584755  0.50527444  1
  H  H132  1  0.69530973  0.44276633  0.50236265  1
  H  H133  1  0.70706470  0.50770335  0.52400142  1
  H  H134  1  0.74537348  0.50100097  0.52375218  1
  H  H135  1  0.67235180  0.49663357  0.51492982  1
  H  H136  1  0.65977123  0.45073608  0.51587428  1
  H  H137  1  0.82549433  0.48083173  0.42073521  1
  H  H138  1  0.85073194  0.47490089  0.43926661  1
  H  H139  1  0.85091927  0.49158792  0.38111796  1
  H  H140  1  0.87857933  0.49993734  0.33114196  1
  H  H141  1  0.88082436  0.43543465  0.29554968  1
  H  H142  1  0.85443633  0.42705924  0.34849608  1
  H  H143  1  0.90086332  0.49073274  0.27610317  1
  H  H144  1  0.90393265  0.44441529  0.25140867  1
  H  H145  1  0.44865569  0.90319857  0.74244937  1
  H  H146  1  0.49653126  0.90666779  0.72617030  1
  H  H147  1  0.51202442  0.88831104  0.67307897  1
  H  H148  1  0.51126988  0.86192566  0.61920036  1
  H  H149  1  0.44440127  0.85527115  0.63472770  1
  H  H150  1  0.44519150  0.88076171  0.69099022  1
  H  H151  1  0.50713266  0.83277175  0.58408101  1
  H  H152  1  0.50040419  0.85589795  0.55797804  1
  H  H153  1  0.47041552  0.86787258  0.47019552  1
  H  H154  1  0.49468422  0.86707856  0.49559507  1
  H  H155  1  0.47117881  0.86790733  0.52424468  1
  H  H156  1  0.49978702  0.80463489  0.59545697  1
  H  H157  1  0.51491996  0.79036570  0.56013415  1
  H  H158  1  0.49034654  0.78086250  0.57719260  1
  H  H159  1  0.45240451  0.79941603  0.41085164  1
  H  H160  1  0.44759800  0.78027655  0.44887988  1
  H  H161  1  0.47138169  0.78042349  0.42134877  1
  H  H162  1  0.48527842  0.76463891  0.47176714  1
  H  H163  1  0.49215074  0.76572499  0.52423952  1
  H  H164  1  0.49056122  0.73534022  0.50538143  1
  H  H165  1  0.48423971  0.69807735  0.50217346  1
  H  H166  1  0.41784749  0.70830792  0.51921135  1
  H  H167  1  0.42434560  0.74632602  0.52267980  1
  H  H168  1  0.42885849  0.67503032  0.50947060  1
  H  H169  1  0.47610724  0.66446694  0.50220559  1
  H  H170  1  0.44198295  0.82758978  0.42368847  1
  H  H171  1  0.45031781  0.85207788  0.44138161  1
  H  H172  1  0.43271960  0.85675711  0.38387644  1
  H  H173  1  0.42746834  0.88408694  0.33266210  1
  H  H174  1  0.49217860  0.87744909  0.29387000  1
  H  H175  1  0.49728000  0.85086444  0.34670177  1
  H  H176  1  0.44039516  0.90541966  0.27470043  1
  H  H177  1  0.48741022  0.89852803  0.25377930  1
  H  H178  1  0.41856556  0.52454222  0.55123268  1
  H  H179  1  0.38313705  0.53887618  0.54656792  1
  H  H180  1  0.37347254  0.50691765  0.43314731  1
  H  H181  1  0.40780567  0.49034691  0.44051823  1
  H  H182  1  0.50238557  0.40464060  0.55319540  1
  H  H183  1  0.51665110  0.37000799  0.54198760  1
  H  H184  1  0.54474698  0.39097430  0.42953976  1
  H  H185  1  0.52779111  0.42485492  0.43772064  1
  H  H186  1  0.58532719  0.47090781  0.55467104  1
  H  H187  1  0.62116383  0.45996734  0.53936028  1
  H  H188  1  0.61954602  0.49563720  0.42801114  1
  H  H189  1  0.58497944  0.50940232  0.44663346  1
  H  H190  1  0.51156099  0.60061675  0.49525354  1
  H  H191  1  0.49475171  0.63465383  0.49630565  1
  H  H192  1  0.43521598  0.60533276  0.52035741  1
  H  H193  1  0.45242077  0.57129822  0.52291720  1
  C  C194  1  0.99173083  0.49563609  0.03947051  1
  C  C195  1  0.01037405  0.51096561  0.03719138  1
  C  C196  1  0.97811587  0.49815798  0.00073576  1
  C  C197  1  0.00873793  0.50830342  0.95957629  1
  C  C198  1  0.02246957  0.50561208  0.99811830  1
  C  C199  1  0.99028950  0.49274128  0.96176901  1
  C  C200  1  0.50688177  0.01053720  0.96068677  1
  C  C201  1  0.49140837  0.99204183  0.96286493  1
  C  C202  1  0.50433281  0.02387733  0.99957386  1
  C  C203  1  0.49408860  0.99365856  0.04086918  1
  C  C204  1  0.49683670  0.98018244  0.00220934  1
  C  C205  1  0.50984319  0.01193127  0.03880698  1
  C  C206  1  0.46434273  0.50457580  0.54370837  1
  C  C207  1  0.47923151  0.51939377  0.52072601  1
  C  C208  1  0.49164558  0.53524256  0.54566237  1
  C  C209  1  0.52005508  0.53849786  0.49115179  1
  C  C210  1  0.46694664  0.47728856  0.49048777  1
  C  C211  1  0.43957667  0.50184210  0.48583395  1
  C  C212  1  0.48985807  0.56213416  0.48938281  1
  C  C213  1  0.53884670  0.49883199  0.46241615  1
  C  C214  1  0.52383773  0.48395047  0.48468736  1
  C  C215  1  0.51100993  0.46904680  0.45839828  1
  C  C216  1  0.48317703  0.46457497  0.51374214  1
  C  C217  1  0.53575546  0.52607992  0.51592519  1
  C  C218  1  0.56347299  0.50214908  0.52022459  1
  C  C219  1  0.51404824  0.44063595  0.51065895  1
  C  C220  1  0.09499285  0.53784884  0.25395103  1
  C  C221  1  0.10163931  0.52203696  0.28010464  1
  C  C222  1  0.11605907  0.52364887  0.31327404  1
  C  C223  1  0.12135455  0.50544547  0.33539050  1
  C  C224  1  0.13594150  0.50579535  0.36652252  1
  C  C225  1  0.14527785  0.52461013  0.37746473  1
  C  C226  1  0.14012598  0.54297722  0.35703259  1
  C  C227  1  0.12568249  0.54257846  0.32540411  1
  C  C228  1  0.16217313  0.50772997  0.43422471  1
  C  C229  1  0.17492320  0.51480211  0.46999871  1
  C  C230  1  0.19699057  0.51426671  0.46758284  1
  C  C231  1  0.20869063  0.52291478  0.49984209  1
  C  C232  1  0.19874642  0.53342418  0.53237086  1
  C  C233  1  0.17666832  0.53488991  0.53275093  1
  C  C234  1  0.16456409  0.52464442  0.50288474  1
  C  C235  1  0.14101009  0.52390224  0.50362814  1
  C  C236  1  0.20791798  0.50376106  0.43270028  1
  C  C237  1  0.21246112  0.54291869  0.56458183  1
  C  C238  1  0.23215560  0.52236840  0.49859369  1
  C  C239  1  0.26086242  0.54577207  0.48862275  1
  C  C240  1  0.27473805  0.52923454  0.49366983  1
  C  C241  1  0.29610380  0.53313639  0.49616253  1
  C  C242  1  0.30414835  0.55358237  0.49501335  1
  C  C243  1  0.28976042  0.56984799  0.48683971  1
  C  C244  1  0.26842054  0.56599488  0.48364244  1
  C  C245  1  0.32637495  0.55728426  0.49810634  1
  C  C246  1  0.34073895  0.54237166  0.50785608  1
  C  C247  1  0.16602472  0.54646350  0.56666529  1
  C  C248  1  0.14966095  0.53677817  0.63021284  1
  C  C249  1  0.14071132  0.55643096  0.63472016  1
  C  C250  1  0.12561533  0.55954522  0.66450032  1
  C  C251  1  0.11925591  0.54336420  0.69148616  1
  C  C252  1  0.12904520  0.52374366  0.68650732  1
  C  C253  1  0.14415143  0.52066249  0.65669343  1
  C  C254  1  0.10379189  0.54664670  0.72246157  1
  C  C255  1  0.09710469  0.53102829  0.74907153  1
  C  C256  1  0.53463625  0.09710634  0.25459322  1
  C  C257  1  0.55236671  0.10062962  0.27860353  1
  C  C258  1  0.55315859  0.11495135  0.31207606  1
  C  C259  1  0.57179807  0.11796765  0.33520257  1
  C  C260  1  0.57292456  0.13215639  0.36689880  1
  C  C261  1  0.55521673  0.14383844  0.37707663  1
  C  C262  1  0.53649040  0.14090587  0.35565448  1
  C  C263  1  0.53539497  0.12674644  0.32392068  1
  C  C264  1  0.57226196  0.16106934  0.43471272  1
  C  C265  1  0.56455144  0.17449981  0.46911770  1
  C  C266  1  0.56492025  0.19633600  0.46503342  1
  C  C267  1  0.55579283  0.20858495  0.49594055  1
  C  C268  1  0.54596069  0.19920206  0.53021209  1
  C  C269  1  0.54493320  0.17737728  0.53283705  1
  C  C270  1  0.55466575  0.16488691  0.50301243  1
  C  C271  1  0.55478516  0.14161930  0.50522728  1
  C  C272  1  0.57623558  0.20624934  0.42977842  1
  C  C273  1  0.53692898  0.21328881  0.56210218  1
  C  C274  1  0.55641428  0.23188865  0.49384071  1
  C  C275  1  0.53308997  0.26101292  0.48795781  1
  C  C276  1  0.55005152  0.27452822  0.49298224  1
  C  C277  1  0.54660161  0.29576503  0.49479977  1
  C  C278  1  0.52616051  0.30411223  0.49322728  1
  C  C279  1  0.50939691  0.29013908  0.48610552  1
  C  C280  1  0.51279748  0.26891075  0.48349189  1
  C  C281  1  0.52320156  0.32635230  0.49573152  1
  C  C282  1  0.53915159  0.33963375  0.50396077  1
  C  C283  1  0.53404563  0.16730496  0.56856446  1
  C  C284  1  0.54377983  0.14997912  0.63050678  1
  C  C285  1  0.52290573  0.14394442  0.63634993  1
  C  C286  1  0.51805057  0.12913828  0.66556818  1
  C  C287  1  0.53358841  0.12063301  0.69164084  1
  C  C288  1  0.55456297  0.12769409  0.68590289  1
  C  C289  1  0.55949587  0.14226654  0.65602779  1
  C  C290  1  0.52760167  0.10582561  0.72231377  1
  C  C291  1  0.54073993  0.09621939  0.75064882  1
  C  C292  1  0.90512573  0.46745545  0.74530845  1
  C  C293  1  0.90177914  0.44978963  0.72171201  1
  C  C294  1  0.88744309  0.44889783  0.68811134  1
  C  C295  1  0.88453112  0.43038462  0.66530443  1
  C  C296  1  0.87029494  0.42919477  0.63342885  1
  C  C297  1  0.85852256  0.44669566  0.62288723  1
  C  C298  1  0.86131740  0.46527823  0.64402847  1
  C  C299  1  0.87553980  0.46645945  0.67592781  1
  C  C300  1  0.84189424  0.42955824  0.56512461  1
  C  C301  1  0.82841584  0.43700841  0.53045456  1
  C  C302  1  0.80635924  0.43655339  0.53458923  1
  C  C303  1  0.79396479  0.44541467  0.50347621  1
  C  C304  1  0.80334365  0.45567815  0.46973732  1
  C  C305  1  0.82539880  0.45702109  0.46750582  1
  C  C306  1  0.83811564  0.44716300  0.49698984  1
  C  C307  1  0.86165655  0.44723209  0.49498228  1
  C  C308  1  0.79632247  0.42554745  0.57008327  1
  C  C309  1  0.78904749  0.46490323  0.43812392  1
  C  C310  1  0.77045768  0.44473863  0.50573139  1
  C  C311  1  0.74160787  0.46812856  0.51434130  1
  C  C312  1  0.72753158  0.45168627  0.50906156  1
  C  C313  1  0.70610706  0.45551558  0.50849229  1
  C  C314  1  0.69814979  0.47566403  0.51484352  1
  C  C315  1  0.71283266  0.49196517  0.52027091  1
  C  C316  1  0.73423912  0.48829202  0.52000149  1
  C  C317  1  0.67596930  0.48014059  0.51281225  1
  C  C318  1  0.66046515  0.46653945  0.50375835  1
  C  C319  1  0.83536031  0.46806830  0.43197433  1
  C  C320  1  0.85212195  0.45856621  0.36958034  1
  C  C321  1  0.85826444  0.47920092  0.36375236  1
  C  C322  1  0.87321090  0.48397082  0.33457298  1
  C  C323  1  0.88172204  0.46854716  0.30865951  1
  C  C324  1  0.87457427  0.44781266  0.31446432  1
  C  C325  1  0.85982615  0.44298091  0.34424338  1
  C  C326  1  0.89662766  0.47435516  0.27796919  1
  C  C327  1  0.90616509  0.46123045  0.24977610  1
  C  C328  1  0.46513266  0.90736504  0.74692034  1
  C  C329  1  0.48083535  0.90056142  0.72046490  1
  C  C330  1  0.47891884  0.88624236  0.68738991  1
  C  C331  1  0.49720689  0.88091850  0.66510319  1
  C  C332  1  0.49670917  0.86647704  0.63405992  1
  C  C333  1  0.47762279  0.85732986  0.62319836  1
  C  C334  1  0.45915243  0.86249132  0.64381815  1
  C  C335  1  0.45971533  0.87676519  0.67541897  1
  C  C336  1  0.49458140  0.84042326  0.56668466  1
  C  C337  1  0.48753589  0.82782424  0.53082620  1
  C  C338  1  0.48844247  0.80603038  0.53296812  1
  C  C339  1  0.48013632  0.79456247  0.50017749  1
  C  C340  1  0.46926602  0.80424284  0.46769303  1
  C  C341  1  0.46759339  0.82604305  0.46732550  1
  C  C342  1  0.47772405  0.83799146  0.49753545  1
  C  C343  1  0.47841180  0.86126442  0.49669960  1
  C  C344  1  0.49879285  0.79501452  0.56806180  1
  C  C345  1  0.45964865  0.79058630  0.43565966  1
  C  C346  1  0.48094691  0.77142555  0.50143424  1
  C  C347  1  0.45760542  0.74310642  0.51265873  1
  C  C348  1  0.47452511  0.72959470  0.50781494  1
  C  C349  1  0.47095307  0.70841598  0.50642721  1
  C  C350  1  0.45042408  0.70027797  0.50993960  1
  C  C351  1  0.43370811  0.71441190  0.51607152  1
  C  C352  1  0.43723363  0.73554982  0.51788116  1
  C  C353  1  0.44558404  0.67844433  0.50759410  1
  C  C354  1  0.45919133  0.66236854  0.50403839  1
  C  C355  1  0.45589535  0.83653833  0.43321562  1
  C  C356  1  0.46574841  0.85289061  0.36973231  1
  C  C357  1  0.44591937  0.86185459  0.36513143  1
  C  C358  1  0.44283943  0.87686712  0.33536620  1
  C  C359  1  0.45920807  0.88313411  0.30841107  1
  C  C360  1  0.47897489  0.87327447  0.31339348  1
  C  C361  1  0.48203843  0.85827473  0.34322383  1
  C  C362  1  0.45592988  0.89857132  0.27751855  1
  C  C363  1  0.47166413  0.90524015  0.25084582  1
  C  C364  1  0.41661713  0.50712093  0.49450700  1
  C  C365  1  0.40881826  0.52028933  0.52523968  1
  C  C366  1  0.38852340  0.52844335  0.52270128  1
  C  C367  1  0.37600221  0.52476460  0.48826640  1
  C  C368  1  0.38322351  0.51063653  0.45941724  1
  C  C369  1  0.40270887  0.50135654  0.46353551  1
  C  C370  1  0.35629902  0.53647460  0.47711742  1
  C  C371  1  0.51570024  0.41811844  0.49822871  1
  C  C372  1  0.51140470  0.40176907  0.52551050  1
  C  C373  1  0.51956537  0.38200911  0.51916948  1
  C  C374  1  0.53246149  0.37805202  0.48538569  1
  C  C375  1  0.53495744  0.39384196  0.45616879  1
  C  C376  1  0.52581201  0.41311158  0.46141035  1
  C  C377  1  0.54412828  0.35830349  0.47833222  1
  C  C378  1  0.58261636  0.49164335  0.50287414  1
  C  C379  1  0.59296311  0.47694644  0.52731018  1
  C  C380  1  0.61325007  0.47044480  0.51829465  1
  C  C381  1  0.62311984  0.47723212  0.48251492  1
  C  C382  1  0.61201013  0.49038595  0.45606064  1
  C  C383  1  0.59242718  0.49802378  0.46650943  1
  C  C384  1  0.64527985  0.47233811  0.47099831  1
  C  C385  1  0.48273553  0.58311927  0.50467862  1
  C  C386  1  0.49471513  0.60146846  0.50069613  1
  C  C387  1  0.48513005  0.62090143  0.50139026  1
  C  C388  1  0.46334778  0.62236615  0.50633406  1
  C  C389  1  0.45206781  0.60422312  0.51545728  1
  C  C390  1  0.46175637  0.58512085  0.51666781  1
  C  C391  1  0.45001208  0.64142947  0.50357222  1
  C  C392  1  0.02135030  0.50752225  0.92391917  1
  C  C393  1  0.03280164  0.51153846  0.89458696  1
  C  C394  1  0.04549145  0.51773559  0.86466849  1
  C  C395  1  0.05724363  0.52419183  0.83732422  1
  C  C396  1  0.07001533  0.53000848  0.80750936  1
  C  C397  1  0.08242180  0.53348643  0.77906750  1
  C  C398  1  0.50559760  0.02322438  0.92517079  1
  C  C399  1  0.50864906  0.03462999  0.89546690  1
  C  C400  1  0.51384079  0.04740981  0.86500800  1
  C  C401  1  0.52010600  0.05910701  0.83750901  1
  C  C402  1  0.52682115  0.07162425  0.80806125  1
  C  C403  1  0.53308374  0.08331748  0.78053161  1
  C  C404  1  0.97907293  0.49697886  0.07504060  1
  C  C405  1  0.96764958  0.49390088  0.10482084  1
  C  C406  1  0.95484632  0.48856655  0.13526430  1
  C  C407  1  0.94318213  0.48210834  0.16274066  1
  C  C408  1  0.93070326  0.47519575  0.19216691  1
  C  C409  1  0.91904574  0.46876175  0.21969298  1
  C  C410  1  0.49472864  0.98101037  0.07644619  1
  C  C411  1  0.49069620  0.96957013  0.10566944  1
  C  C412  1  0.48458512  0.95688776  0.13555602  1
  C  C413  1  0.47829769  0.94512877  0.16293696  1
  C  C414  1  0.47261974  0.93234689  0.19271749  1
  C  C415  1  0.46919831  0.91993912  0.22103463  1
  C  C416  1  0.50872357  0.02550291  0.07368924  1
  C  C417  1  0.51164319  0.03663530  0.10364256  1
  C  C418  1  0.51683853  0.04880059  0.13475592  1
  C  C419  1  0.52279003  0.05991234  0.16327622  1
  C  C420  1  0.52873007  0.07190138  0.19402047  1
  C  C421  1  0.53362646  0.08328448  0.22293945  1
  C  C422  1  0.02401744  0.50940462  0.07207847  1
  C  C423  1  0.03533451  0.51168158  0.10212503  1
  C  C424  1  0.04778028  0.51640914  0.13326224  1
  C  C425  1  0.05905382  0.52231195  0.16167458  1
  C  C426  1  0.07112543  0.52860185  0.19213281  1
  C  C427  1  0.08240281  0.53335409  0.22139744  1
  C  C428  1  0.97669893  0.49398881  0.92675087  1
  C  C429  1  0.96556809  0.49112826  0.89659402  1
  C  C430  1  0.95340481  0.48590475  0.86534543  1
  C  C431  1  0.94231605  0.47975969  0.83683800  1
  C  C432  1  0.93035858  0.47359716  0.80609183  1
  C  C433  1  0.91897323  0.46856997  0.77712148  1
  C  C434  1  0.49295499  0.97842640  0.92813854  1
  C  C435  1  0.49074701  0.96710848  0.89828610  1
  C  C436  1  0.48620350  0.95464427  0.86725709  1
  C  C437  1  0.48063882  0.94333075  0.83878715  1
  C  C438  1  0.47472573  0.93122163  0.80825495  1
  C  C439  1  0.46997364  0.91993549  0.77917703  1
  N  N440  1  0.45325798  0.49084419  0.51530992  1
  N  N441  1  0.50407490  0.54964716  0.51733587  1
  N  N442  1  0.54942482  0.51256920  0.49140831  1
  N  N443  1  0.49896753  0.45396337  0.48571054  1
  O  O444  1  0.00191609  0.53177104  0.03381537  1
  O  O445  1  0.99895972  0.47202383  0.96548245  1
  O  O446  1  0.47034241  1.00037099  0.96599913  1
  O  O447  1  0.53078956  0.00332090  0.03523602  1
  O  O448  1  0.15988712  0.52574644  0.40745915  1
  O  O449  1  0.16426502  0.53240863  0.60131993  1
  O  O450  1  0.23971665  0.54306927  0.48805222  1
  O  O451  1  0.55479037  0.15873409  0.40635325  1
  O  O452  1  0.54936392  0.16369172  0.60078335  1
  O  O453  1  0.53533118  0.24003863  0.48696818  1
  O  O454  1  0.84360418  0.44692277  0.59332163  1
  O  O455  1  0.83824726  0.45312470  0.39924434  1
  O  O456  1  0.76276632  0.46557897  0.51408053  1
  O  O457  1  0.47631241  0.84296165  0.59312393  1
  O  O458  1  0.47014665  0.83841996  0.39869518  1
  O  O459  1  0.46009565  0.76400646  0.51249942  1
  O  O460  1  0.35314867  0.54022420  0.44052647  1
  O  O461  1  0.55801093  0.35783501  0.45196507  1
  O  O462  1  0.65145578  0.47580851  0.43589765  1
  O  O463  1  0.43063329  0.63916239  0.50214484  1
