# generated using pymatgen
data_CoH57C85N2O5F
_symmetry_space_group_name_H-M   'P 1'
_cell_length_a   75.23082640
_cell_length_b   74.97512479
_cell_length_c   46.95545415
_cell_angle_alpha   90.06244128
_cell_angle_beta   90.06299321
_cell_angle_gamma   90.16254985
_symmetry_Int_Tables_number   1
_chemical_formula_structural   CoH57C85N2O5F
_chemical_formula_sum   'Co4 H228 C340 N8 O20 F4'
_cell_volume   264848.06576320
_cell_formula_units_Z   4
loop_
 _symmetry_equiv_pos_site_id
 _symmetry_equiv_pos_as_xyz
  1  'x, y, z'
loop_
 _atom_site_type_symbol
 _atom_site_label
 _atom_site_symmetry_multiplicity
 _atom_site_fract_x
 _atom_site_fract_y
 _atom_site_fract_z
 _atom_site_occupancy
  Co  Co0  1  0.00869254  0.50310934  0.00000954  1
  Co  Co1  1  0.50865908  0.00317750  0.00000738  1
  Co  Co2  1  0.50914692  0.50365868  0.52722440  1
  Co  Co3  1  0.50874073  0.50416390  0.47290924  1
  H  H4  1  0.04563817  0.51224662  0.01390587  1
  H  H5  1  0.06707102  0.50404537  0.05317901  1
  H  H6  1  0.02486387  0.47273238  0.09082559  1
  H  H7  1  0.00638448  0.47968667  0.04731009  1
  H  H8  1  0.03262805  0.47390999  0.98729126  1
  H  H9  1  0.05475846  0.46703352  0.94833051  1
  H  H10  1  0.04031755  0.51707454  0.90904141  1
  H  H11  1  0.02134264  0.52323601  0.95235222  1
  H  H12  1  0.97174415  0.49398506  0.01363557  1
  H  H13  1  0.95028445  0.50219073  0.05284499  1
  H  H14  1  0.99248898  0.53346238  0.09085517  1
  H  H15  1  0.01098933  0.52652517  0.04738482  1
  H  H16  1  0.98475645  0.53230817  0.98739814  1
  H  H17  1  0.96257661  0.53918458  0.94842933  1
  H  H18  1  0.97701523  0.48916953  0.90892338  1
  H  H19  1  0.99602460  0.48299229  0.95225227  1
  H  H20  1  0.49951285  0.04006488  0.01389201  1
  H  H21  1  0.50773542  0.06165133  0.05319333  1
  H  H22  1  0.53903008  0.01946810  0.09080727  1
  H  H23  1  0.53203832  0.00089008  0.04727807  1
  H  H24  1  0.53781263  0.02715122  0.98752415  1
  H  H25  1  0.54474574  0.04941231  0.94856936  1
  H  H26  1  0.49484646  0.03471551  0.90902292  1
  H  H27  1  0.48862789  0.01570197  0.95240206  1
  H  H28  1  0.51784041  0.96634056  0.01361578  1
  H  H29  1  0.50962550  0.94470316  0.05281628  1
  H  H30  1  0.47832022  0.98685604  0.09056838  1
  H  H31  1  0.48528309  0.00546748  0.04710632  1
  H  H32  1  0.47948292  0.97914532  0.98724975  1
  H  H33  1  0.47256865  0.95693474  0.94813278  1
  H  H34  1  0.52251823  0.97160184  0.90898401  1
  H  H35  1  0.52869847  0.99061863  0.95245103  1
  H  H36  1  0.17621222  0.44400343  0.32428655  1
  H  H37  1  0.16690743  0.40387179  0.33116024  1
  H  H38  1  0.18147018  0.38889098  0.37134844  1
  H  H39  1  0.20094533  0.38933021  0.41323872  1
  H  H40  1  0.21110978  0.44537930  0.40054232  1
  H  H41  1  0.19169421  0.44526820  0.35834365  1
  H  H42  1  0.22370394  0.39180870  0.44040964  1
  H  H43  1  0.20384702  0.39911884  0.45713319  1
  H  H44  1  0.19474650  0.42475353  0.51948080  1
  H  H45  1  0.19392641  0.40319808  0.50444568  1
  H  H46  1  0.19455929  0.42230428  0.48213375  1
  H  H47  1  0.24768992  0.39968635  0.43120819  1
  H  H48  1  0.25968135  0.38540807  0.45418637  1
  H  H49  1  0.26829200  0.40659663  0.44468234  1
  H  H50  1  0.25321083  0.43586409  0.56330855  1
  H  H51  1  0.26937672  0.44035300  0.53690368  1
  H  H52  1  0.26951276  0.41989927  0.55558801  1
  H  H53  1  0.28294862  0.41098772  0.51758314  1
  H  H54  1  0.28127777  0.40461130  0.48100171  1
  H  H55  1  0.30591907  0.40654360  0.49515867  1
  H  H56  1  0.33768095  0.41195669  0.49923472  1
  H  H57  1  0.32891899  0.46839459  0.48488590  1
  H  H58  1  0.29628226  0.46286124  0.48212610  1
  H  H59  1  0.35768158  0.45898498  0.49096844  1
  H  H60  1  0.36677151  0.41908842  0.50180415  1
  H  H61  1  0.22933173  0.44328798  0.55583291  1
  H  H62  1  0.20805273  0.43509773  0.54672423  1
  H  H63  1  0.21116816  0.45158587  0.58416299  1
  H  H64  1  0.19003363  0.45949470  0.62177301  1
  H  H65  1  0.19051184  0.40488461  0.65173297  1
  H  H66  1  0.21129543  0.39694715  0.61297716  1
  H  H67  1  0.17273397  0.45256746  0.66214441  1
  H  H68  1  0.17238998  0.41354521  0.68418803  1
  H  H69  1  0.56808730  0.17112702  0.32484341  1
  H  H70  1  0.60804792  0.16177551  0.33157222  1
  H  H71  1  0.62310868  0.17646578  0.37181715  1
  H  H72  1  0.62270655  0.19593161  0.41380070  1
  H  H73  1  0.56682042  0.20578229  0.40116233  1
  H  H74  1  0.56688171  0.18636516  0.35889475  1
  H  H75  1  0.62027642  0.21853850  0.44107487  1
  H  H76  1  0.61294517  0.19852506  0.45763784  1
  H  H77  1  0.58734441  0.18921900  0.51993195  1
  H  H78  1  0.60883517  0.18848627  0.50502748  1
  H  H79  1  0.58982198  0.18903466  0.48260209  1
  H  H80  1  0.61245656  0.24256031  0.43183283  1
  H  H81  1  0.62669233  0.25468744  0.45484643  1
  H  H82  1  0.60555060  0.26316081  0.44536184  1
  H  H83  1  0.57632748  0.24780511  0.56371541  1
  H  H84  1  0.57179027  0.26396993  0.53725998  1
  H  H85  1  0.59215915  0.26432617  0.55603628  1
  H  H86  1  0.60098651  0.27787081  0.51808904  1
  H  H87  1  0.60753115  0.27617781  0.48162240  1
  H  H88  1  0.60543505  0.30078161  0.49553067  1
  H  H89  1  0.59988298  0.33257613  0.49976682  1
  H  H90  1  0.54368758  0.32322454  0.48513660  1
  H  H91  1  0.54934964  0.29051491  0.48235201  1
  H  H92  1  0.55308717  0.35229860  0.49129066  1
  H  H93  1  0.59289117  0.36146592  0.50237200  1
  H  H94  1  0.56877088  0.22384338  0.55597453  1
  H  H95  1  0.57704578  0.20253441  0.54717151  1
  H  H96  1  0.56053205  0.20581493  0.58449150  1
  H  H97  1  0.55266334  0.18457961  0.62213236  1
  H  H98  1  0.60710799  0.18542144  0.65220940  1
  H  H99  1  0.61499517  0.20629415  0.61342777  1
  H  H100  1  0.55966571  0.16725802  0.66262746  1
  H  H101  1  0.59863362  0.16739556  0.68450802  1
  H  H102  1  0.84379756  0.58933788  0.67959841  1
  H  H103  1  0.84904492  0.54921176  0.66547113  1
  H  H104  1  0.83492756  0.53651844  0.62643434  1
  H  H105  1  0.81524761  0.53779945  0.58485526  1
  H  H106  1  0.80640116  0.59393983  0.59992004  1
  H  H107  1  0.82602998  0.59271677  0.64227308  1
  H  H108  1  0.79308167  0.54061736  0.55929656  1
  H  H109  1  0.81301480  0.54786211  0.54260184  1
  H  H110  1  0.82251419  0.57326927  0.48057026  1
  H  H111  1  0.82310019  0.55173459  0.49561983  1
  H  H112  1  0.82256176  0.57087095  0.51790719  1
  H  H113  1  0.76937010  0.54830028  0.56868046  1
  H  H114  1  0.75737390  0.53402989  0.54559512  1
  H  H115  1  0.74874125  0.55510635  0.55546633  1
  H  H116  1  0.76410265  0.58456947  0.43670074  1
  H  H117  1  0.74785134  0.58907768  0.46303434  1
  H  H118  1  0.74775446  0.56855187  0.44446210  1
  H  H119  1  0.73423841  0.55991527  0.48265564  1
  H  H120  1  0.73580823  0.55412416  0.51950048  1
  H  H121  1  0.71200772  0.55469219  0.50492303  1
  H  H122  1  0.68066725  0.55748448  0.50116639  1
  H  H123  1  0.68523255  0.61488169  0.51475535  1
  H  H124  1  0.71792739  0.61150614  0.51766166  1
  H  H125  1  0.65390690  0.59968732  0.50875951  1
  H  H126  1  0.65851410  0.55922780  0.49564749  1
  H  H127  1  0.78818939  0.59231922  0.44439448  1
  H  H128  1  0.80932892  0.58386942  0.45347740  1
  H  H129  1  0.80702421  0.60036686  0.41512961  1
  H  H130  1  0.82811858  0.60745990  0.37708413  1
  H  H131  1  0.82610631  0.55219964  0.34914645  1
  H  H132  1  0.80534502  0.54544497  0.38794268  1
  H  H133  1  0.84630257  0.59808157  0.33473756  1
  H  H134  1  0.84149115  0.55795727  0.31992683  1
  H  H135  1  0.42214307  0.83786134  0.67887448  1
  H  H136  1  0.46217979  0.84352436  0.66546134  1
  H  H137  1  0.47493629  0.82946624  0.62636820  1
  H  H138  1  0.47370375  0.80978682  0.58468756  1
  H  H139  1  0.41773317  0.80058981  0.59927935  1
  H  H140  1  0.41889159  0.82022995  0.64171236  1
  H  H141  1  0.47093339  0.78775610  0.55890357  1
  H  H142  1  0.46364391  0.80775048  0.54232719  1
  H  H143  1  0.43827966  0.81712761  0.48015559  1
  H  H144  1  0.45973425  0.81789641  0.49528867  1
  H  H145  1  0.44067254  0.81718336  0.51750411  1
  H  H146  1  0.46324940  0.76392102  0.56831032  1
  H  H147  1  0.47751346  0.75197733  0.54531551  1
  H  H148  1  0.45649273  0.74319588  0.55500105  1
  H  H149  1  0.42711153  0.75842805  0.43624033  1
  H  H150  1  0.42253812  0.74213544  0.46260238  1
  H  H151  1  0.44299461  0.74205880  0.44413194  1
  H  H152  1  0.45156533  0.72857864  0.48231216  1
  H  H153  1  0.45743080  0.73023715  0.51913803  1
  H  H154  1  0.45674085  0.70644716  0.50482314  1
  H  H155  1  0.45389217  0.67502883  0.50090119  1
  H  H156  1  0.39666295  0.67938700  0.51396447  1
  H  H157  1  0.40010791  0.71221621  0.51696652  1
  H  H158  1  0.41186686  0.64792541  0.50807660  1
  H  H159  1  0.45216542  0.65293603  0.49509044  1
  H  H160  1  0.41921551  0.78247341  0.44417521  1
  H  H161  1  0.42769884  0.80376950  0.45296087  1
  H  H162  1  0.41120047  0.80098771  0.41462307  1
  H  H163  1  0.40407526  0.82205943  0.37646838  1
  H  H164  1  0.45919010  0.82058554  0.34889056  1
  H  H165  1  0.46596863  0.79982503  0.38777200  1
  H  H166  1  0.41345076  0.84036576  0.33410687  1
  H  H167  1  0.45347968  0.83582496  0.31965409  1
  H  H168  1  0.05880240  0.47039710  0.82937771  1
  H  H169  1  0.07793374  0.45968199  0.79127147  1
  H  H170  1  0.12381285  0.46787137  0.84599474  1
  H  H171  1  0.10413380  0.47849282  0.88341690  1
  H  H172  1  0.13938672  0.45934324  0.81524692  1
  H  H173  1  0.15855617  0.44895239  0.77709503  1
  H  H174  1  0.11316188  0.44077752  0.72299517  1
  H  H175  1  0.09353892  0.45109861  0.76059317  1
  H  H176  1  0.51077421  0.08607042  0.85012385  1
  H  H177  1  0.52125975  0.10538292  0.81200199  1
  H  H178  1  0.57485054  0.08576444  0.82571440  1
  H  H179  1  0.56369580  0.06666700  0.86367030  1
  H  H180  1  0.58349089  0.10139320  0.79459880  1
  H  H181  1  0.59376646  0.12068488  0.75636011  1
  H  H182  1  0.54057869  0.13976690  0.74339686  1
  H  H183  1  0.52978261  0.12068709  0.78140970  1
  H  H184  1  0.92486422  0.55318429  0.11545559  1
  H  H185  1  0.90523015  0.56363511  0.15304055  1
  H  H186  1  0.92900343  0.52530817  0.21080530  1
  H  H187  1  0.94836103  0.51530343  0.17249206  1
  H  H188  1  0.91308472  0.53345939  0.24165546  1
  H  H189  1  0.89353277  0.54400594  0.27922742  1
  H  H190  1  0.87015206  0.58191272  0.22210765  1
  H  H191  1  0.88943432  0.57176376  0.18386212  1
  H  H192  1  0.45254938  0.92751608  0.12199760  1
  H  H193  1  0.44195346  0.90803132  0.15979490  1
  H  H194  1  0.49241236  0.91486460  0.20351453  1
  H  H195  1  0.50240442  0.93428319  0.16512260  1
  H  H196  1  0.48411552  0.89896126  0.23436126  1
  H  H197  1  0.47342554  0.87954782  0.27212206  1
  H  H198  1  0.42360069  0.87294642  0.22883686  1
  H  H199  1  0.43374966  0.89227506  0.19050798  1
  H  H200  1  0.56574362  0.06317797  0.14291860  1
  H  H201  1  0.57609627  0.08240826  0.18128135  1
  H  H202  1  0.52426257  0.10764126  0.18349561  1
  H  H203  1  0.51451246  0.08805307  0.14506102  1
  H  H204  1  0.53257985  0.12349362  0.21476822  1
  H  H205  1  0.54303075  0.14264464  0.25312249  1
  H  H206  1  0.59418702  0.11752273  0.25062243  1
  H  H207  1  0.58425412  0.09809779  0.21224802  1
  H  H208  1  0.06442271  0.48514526  0.17503105  1
  H  H209  1  0.08380200  0.47512634  0.21331517  1
  H  H210  1  0.11691400  0.44832677  0.15099061  1
  H  H211  1  0.09713846  0.45865124  0.11346369  1
  H  H212  1  0.13279647  0.44024641  0.18198312  1
  H  H213  1  0.15208932  0.43008641  0.22018986  1
  H  H214  1  0.11939325  0.45665704  0.28178429  1
  H  H215  1  0.09975263  0.46706222  0.24422655  1
  H  H216  1  0.91446868  0.51557017  0.87273248  1
  H  H217  1  0.89492378  0.52599198  0.83494762  1
  H  H218  1  0.93800542  0.55880225  0.80235225  1
  H  H219  1  0.95703023  0.54798416  0.84056125  1
  H  H220  1  0.92249692  0.56731596  0.77152361  1
  H  H221  1  0.90299588  0.57759124  0.73364740  1
  H  H222  1  0.86050669  0.54502415  0.76605455  1
  H  H223  1  0.87954364  0.53443014  0.80424474  1
  H  H224  1  0.50674621  0.92788394  0.83975839  1
  H  H225  1  0.49614883  0.90867441  0.80145555  1
  H  H226  1  0.44256868  0.91295679  0.83513308  1
  H  H227  1  0.45381812  0.93213015  0.87300089  1
  H  H228  1  0.43386973  0.89742517  0.80418088  1
  H  H229  1  0.42340132  0.87820907  0.76583046  1
  H  H230  1  0.47652393  0.87423307  0.73295644  1
  H  H231  1  0.48752325  0.89336316  0.77085288  1
  C  C232  1  0.04197938  0.50330548  0.03121539  1
  C  C233  1  0.05347943  0.49892690  0.05311608  1
  C  C234  1  0.04763131  0.48782486  0.07565072  1
  C  C235  1  0.03002414  0.48123470  0.07385799  1
  C  C236  1  0.01958452  0.48530664  0.05060582  1
  C  C237  1  0.03520756  0.48302379  0.96973176  1
  C  C238  1  0.04689552  0.47923900  0.94792770  1
  C  C239  1  0.04861248  0.49108541  0.92458205  1
  C  C240  1  0.03908849  0.50728792  0.92613190  1
  C  C241  1  0.02839395  0.51071003  0.94939647  1
  C  C242  1  0.97539219  0.50291814  0.03100269  1
  C  C243  1  0.96388260  0.50729294  0.05285549  1
  C  C244  1  0.96973256  0.51837512  0.07546442  1
  C  C245  1  0.98733983  0.52497113  0.07381699  1
  C  C246  1  0.99778828  0.52090666  0.05060110  1
  C  C247  1  0.98216279  0.52320143  0.96979646  1
  C  C248  1  0.97045159  0.52698616  0.94800845  1
  C  C249  1  0.96872460  0.51513909  0.92462478  1
  C  C250  1  0.97825643  0.49894107  0.92607238  1
  C  C251  1  0.98897154  0.49551756  0.94933148  1
  C  C252  1  0.50847135  0.03648966  0.03118959  1
  C  C253  1  0.51287688  0.04805720  0.05306072  1
  C  C254  1  0.52406758  0.04227881  0.07548801  1
  C  C255  1  0.53056529  0.02461413  0.07381376  1
  C  C256  1  0.52645790  0.01410878  0.05059011  1
  C  C257  1  0.52875668  0.02975535  0.96992771  1
  C  C258  1  0.53255786  0.04149104  0.94815654  1
  C  C259  1  0.52072327  0.04318620  0.92481334  1
  C  C260  1  0.50456677  0.03354381  0.92619602  1
  C  C261  1  0.50112154  0.02281917  0.94944208  1
  C  C262  1  0.50888350  0.96987812  0.03091164  1
  C  C263  1  0.50451757  0.95831079  0.05272725  1
  C  C264  1  0.49340824  0.96412645  0.07520483  1
  C  C265  1  0.48680818  0.98175260  0.07358221  1
  C  C266  1  0.49087238  0.99225546  0.05040416  1
  C  C267  1  0.48855768  0.97656603  0.96969101  1
  C  C268  1  0.48476873  0.96483804  0.94784261  1
  C  C269  1  0.49663940  0.96312488  0.92459164  1
  C  C270  1  0.51278603  0.97277448  0.92610992  1
  C  C271  1  0.51620592  0.98350210  0.94941005  1
  C  C272  1  0.47662995  0.49054954  0.49975900  1
  C  C273  1  0.52156219  0.47125758  0.49767052  1
  C  C274  1  0.49513542  0.53664940  0.50242266  1
  C  C275  1  0.54204099  0.51689950  0.50043474  1
  C  C276  1  0.16937887  0.43136499  0.31989730  1
  C  C277  1  0.17303383  0.41660860  0.33667697  1
  C  C278  1  0.18467222  0.41700780  0.36112174  1
  C  C279  1  0.18782077  0.40140317  0.37752624  1
  C  C280  1  0.19868562  0.40163071  0.40141744  1
  C  C281  1  0.20678594  0.41757104  0.40993829  1
  C  C282  1  0.20446953  0.43308990  0.39392697  1
  C  C283  1  0.19351070  0.43288156  0.37008834  1
  C  C284  1  0.21759912  0.40298212  0.45205399  1
  C  C285  1  0.22820821  0.40810053  0.47776846  1
  C  C286  1  0.24685534  0.40729543  0.47596799  1
  C  C287  1  0.25678281  0.41365756  0.49929302  1
  C  C288  1  0.24888789  0.42188806  0.52317596  1
  C  C289  1  0.23020496  0.42269942  0.52415143  1
  C  C290  1  0.21973434  0.41578979  0.50171400  1
  C  C291  1  0.19981777  0.41659032  0.50200552  1
  C  C292  1  0.25602215  0.39945210  0.45037607  1
  C  C293  1  0.26069584  0.42987008  0.54576878  1
  C  C294  1  0.27641944  0.41400254  0.49712992  1
  C  C295  1  0.29926635  0.43458654  0.48919781  1
  C  C296  1  0.31083347  0.42019373  0.49346920  1
  C  C297  1  0.32888840  0.42323092  0.49535539  1
  C  C298  1  0.33584194  0.44075700  0.49234116  1
  C  C299  1  0.32366901  0.45494109  0.48730788  1
  C  C300  1  0.30557684  0.45193819  0.48568340  1
  C  C301  1  0.35430878  0.44495755  0.49390618  1
  C  C302  1  0.36858744  0.43343672  0.49870236  1
  C  C303  1  0.22194823  0.43112698  0.54977650  1
  C  C304  1  0.21186511  0.42353305  0.59558661  1
  C  C305  1  0.20628373  0.44124354  0.59846916  1
  C  C306  1  0.19466454  0.44577176  0.62003445  1
  C  C307  1  0.18855480  0.43298689  0.64002741  1
  C  C308  1  0.19491103  0.41520425  0.63699192  1
  C  C309  1  0.20661466  0.41063582  0.61528630  1
  C  C310  1  0.17655868  0.43854481  0.66213461  1
  C  C311  1  0.16950623  0.42782830  0.68337199  1
  C  C312  1  0.58058583  0.16416331  0.32053647  1
  C  C313  1  0.59538206  0.16785255  0.33720155  1
  C  C314  1  0.59506325  0.17951441  0.36163470  1
  C  C315  1  0.61064547  0.18274965  0.37802653  1
  C  C316  1  0.61043879  0.19360300  0.40196122  1
  C  C317  1  0.59454903  0.20159945  0.41051158  1
  C  C318  1  0.57906204  0.19921560  0.39450014  1
  C  C319  1  0.57924497  0.18825973  0.37062843  1
  C  C320  1  0.60914858  0.21233446  0.45266794  1
  C  C321  1  0.60410166  0.22290365  0.47840430  1
  C  C322  1  0.60493096  0.24161686  0.47660872  1
  C  C323  1  0.59858643  0.25153544  0.49990475  1
  C  C324  1  0.59027764  0.24357288  0.52365794  1
  C  C325  1  0.58938722  0.22482444  0.52454789  1
  C  C326  1  0.59633337  0.21433915  0.50221659  1
  C  C327  1  0.59550262  0.19434672  0.50250307  1
  C  C328  1  0.61270317  0.25089577  0.45103001  1
  C  C329  1  0.58226985  0.25536689  0.54618836  1
  C  C330  1  0.59813775  0.27121590  0.49764088  1
  C  C331  1  0.57750816  0.29382177  0.48945909  1
  C  C332  1  0.59180609  0.30556556  0.49382382  1
  C  C333  1  0.58869808  0.32363586  0.49578759  1
  C  C334  1  0.57120551  0.33044088  0.49271567  1
  C  C335  1  0.55711590  0.31808878  0.48759787  1
  C  C336  1  0.56018605  0.29996545  0.48593055  1
  C  C337  1  0.56705041  0.34894111  0.49431280  1
  C  C338  1  0.57860218  0.36328140  0.49920650  1
  C  C339  1  0.58093314  0.21653193  0.55009817  1
  C  C340  1  0.58848555  0.20669259  0.59602019  1
  C  C341  1  0.57083421  0.20099162  0.59885900  1
  C  C342  1  0.56633209  0.18932326  0.62042774  1
  C  C343  1  0.57909647  0.18328187  0.64044077  1
  C  C344  1  0.59681579  0.18976775  0.63744223  1
  C  C345  1  0.60135377  0.20152974  0.61574536  1
  C  C346  1  0.57363315  0.17120118  0.66253287  1
  C  C347  1  0.58444815  0.16420180  0.68364880  1
  C  C348  1  0.84841722  0.57558655  0.68140649  1
  C  C349  1  0.84356573  0.56248601  0.66198228  1
  C  C350  1  0.83207579  0.56438245  0.63778391  1
  C  C351  1  0.82870524  0.54912791  0.62071464  1
  C  C352  1  0.81780627  0.54990337  0.59708041  1
  C  C353  1  0.81005382  0.56614497  0.58949230  1
  C  C354  1  0.81276259  0.58145355  0.60603943  1
  C  C355  1  0.82373936  0.58066026  0.62980212  1
  C  C356  1  0.79926965  0.55172186  0.54757058  1
  C  C357  1  0.78873493  0.55673449  0.52189892  1
  C  C358  1  0.77009026  0.55614647  0.52400098  1
  C  C359  1  0.76020571  0.56301184  0.50105620  1
  C  C360  1  0.76828437  0.57082758  0.47694466  1
  C  C361  1  0.78698025  0.57154734  0.47583772  1
  C  C362  1  0.79737012  0.56444614  0.49811793  1
  C  C363  1  0.81730560  0.56514386  0.49799464  1
  C  C364  1  0.76100408  0.54809588  0.54954154  1
  C  C365  1  0.75654999  0.57863241  0.45422670  1
  C  C366  1  0.74055107  0.56341424  0.50312556  1
  C  C367  1  0.71706003  0.58310718  0.51060435  1
  C  C368  1  0.70637788  0.56803726  0.50654523  1
  C  C369  1  0.68815984  0.56973241  0.50481777  1
  C  C370  1  0.67966146  0.58646905  0.50779711  1
  C  C371  1  0.69099953  0.60163216  0.51245804  1
  C  C372  1  0.70937776  0.59991844  0.51400864  1
  C  C373  1  0.66058579  0.58688710  0.50651042  1
  C  C374  1  0.65088831  0.57116891  0.50159877  1
  C  C375  1  0.79536726  0.58006236  0.45033292  1
  C  C376  1  0.80549037  0.57222659  0.40450535  1
  C  C377  1  0.81158941  0.58976434  0.40104224  1
  C  C378  1  0.82327864  0.59379053  0.37917707  1
  C  C379  1  0.82912170  0.58052302  0.35964408  1
  C  C380  1  0.82218189  0.56298767  0.36336833  1
  C  C381  1  0.81037069  0.55900697  0.38519602  1
  C  C382  1  0.84145594  0.58444416  0.33705882  1
  C  C383  1  0.84712289  0.57142081  0.31821510  1
  C  C384  1  0.43580631  0.84264883  0.68099104  1
  C  C385  1  0.44897267  0.83793953  0.66176205  1
  C  C386  1  0.44714714  0.82644756  0.63748981  1
  C  C387  1  0.46237450  0.82316906  0.62052923  1
  C  C388  1  0.46162681  0.81227367  0.59683830  1
  C  C389  1  0.44544262  0.80443676  0.58908655  1
  C  C390  1  0.43016728  0.80702957  0.60553295  1
  C  C391  1  0.43093021  0.81801074  0.62934079  1
  C  C392  1  0.45985780  0.79390266  0.54716958  1
  C  C393  1  0.45490712  0.78333532  0.52144736  1
  C  C394  1  0.45551111  0.76463069  0.52355847  1
  C  C395  1  0.44865797  0.75466554  0.50061434  1
  C  C396  1  0.44078931  0.76270927  0.47654283  1
  C  C397  1  0.43999917  0.78146094  0.47550513  1
  C  C398  1  0.44713360  0.79195723  0.49771969  1
  C  C399  1  0.44639007  0.81195879  0.49760486  1
  C  C400  1  0.46349172  0.75554552  0.54915390  1
  C  C401  1  0.43298235  0.75088197  0.45382427  1
  C  C402  1  0.44816596  0.73495920  0.50275571  1
  C  C403  1  0.42842220  0.71142581  0.51022818  1
  C  C404  1  0.44342078  0.70075945  0.50627927  1
  C  C405  1  0.44168630  0.68248303  0.50445906  1
  C  C406  1  0.42498308  0.67389569  0.50725732  1
  C  C407  1  0.40988634  0.68521924  0.51180961  1
  C  C408  1  0.41163928  0.70366717  0.51343202  1
  C  C409  1  0.42459843  0.65475485  0.50593146  1
  C  C410  1  0.44031136  0.64518261  0.50111006  1
  C  C411  1  0.43145345  0.78975649  0.45000015  1
  C  C412  1  0.43924936  0.79971581  0.40411571  1
  C  C413  1  0.42174727  0.80565913  0.40056232  1
  C  C414  1  0.41770935  0.81732639  0.37866170  1
  C  C415  1  0.43094298  0.82329835  0.35922360  1
  C  C416  1  0.44844677  0.81652676  0.36304701  1
  C  C417  1  0.45243456  0.80471934  0.38489806  1
  C  C418  1  0.42704464  0.83561709  0.33661092  1
  C  C419  1  0.44006455  0.84140471  0.31791433  1
  C  C420  1  0.45942316  0.48171820  0.49976728  1
  C  C421  1  0.44516394  0.47373278  0.49983755  1
  C  C422  1  0.42964428  0.46501326  0.49992047  1
  C  C423  1  0.41555544  0.45647969  0.49998240  1
  C  C424  1  0.40034084  0.44743451  0.49999784  1
  C  C425  1  0.38552987  0.44012440  0.49958714  1
  C  C426  1  0.53031969  0.45401514  0.49774190  1
  C  C427  1  0.53831075  0.43977212  0.49819905  1
  C  C428  1  0.54708573  0.42430033  0.49880115  1
  C  C429  1  0.55567301  0.41027027  0.49952278  1
  C  C430  1  0.56475347  0.39509812  0.50011048  1
  C  C431  1  0.57205839  0.38028431  0.50001858  1
  C  C432  1  0.55934655  0.52573334  0.50049980  1
  C  C433  1  0.57360977  0.53381009  0.50062015  1
  C  C434  1  0.58908454  0.54270172  0.50079113  1
  C  C435  1  0.60304672  0.55154298  0.50136382  1
  C  C436  1  0.61820365  0.56071413  0.50207320  1
  C  C437  1  0.63279841  0.56867670  0.50274556  1
  C  C438  1  0.48606328  0.55382175  0.50242137  1
  C  C439  1  0.47791068  0.56802611  0.50216171  1
  C  C440  1  0.46898609  0.58346514  0.50184926  1
  C  C441  1  0.46011780  0.59739159  0.50182046  1
  C  C442  1  0.45090787  0.61251017  0.50207968  1
  C  C443  1  0.44289276  0.62706811  0.50244109  1
  C  C444  1  0.05945349  0.48663784  0.90110908  1
  C  C445  1  0.06889254  0.48181265  0.88131100  1
  C  C446  1  0.07998762  0.47556963  0.85921278  1
  C  C447  1  0.07314739  0.46989276  0.83268203  1
  C  C448  1  0.08414046  0.46376826  0.81118415  1
  C  C449  1  0.10280757  0.46280175  0.81476087  1
  C  C450  1  0.10962830  0.46830715  0.84152679  1
  C  C451  1  0.09858108  0.47441756  0.86293154  1
  C  C452  1  0.11454199  0.45637243  0.79168636  1
  C  C453  1  0.13320449  0.45540663  0.79523482  1
  C  C454  1  0.14423252  0.44957203  0.77358673  1
  C  C455  1  0.13750031  0.44438980  0.74663791  1
  C  C456  1  0.11880885  0.44500605  0.74333956  1
  C  C457  1  0.10774582  0.45084010  0.76493346  1
  C  C458  1  0.14872233  0.43892323  0.72418120  1
  C  C459  1  0.15849485  0.43443999  0.70446895  1
  C  C460  1  0.52514214  0.05419424  0.90149795  1
  C  C461  1  0.52996744  0.06375664  0.88181482  1
  C  C462  1  0.53634895  0.07481105  0.85973152  1
  C  C463  1  0.52483030  0.08611303  0.84443493  1
  C  C464  1  0.53095138  0.09704327  0.82282319  1
  C  C465  1  0.54912460  0.09744110  0.81499342  1
  C  C466  1  0.56070435  0.08613772  0.83046009  1
  C  C467  1  0.55450831  0.07523177  0.85204749  1
  C  C468  1  0.55560005  0.10910843  0.79182227  1
  C  C469  1  0.57372979  0.10965705  0.78376521  1
  C  C470  1  0.57970014  0.12058948  0.76199278  1
  C  C471  1  0.56800493  0.13176794  0.74659587  1
  C  C472  1  0.54990966  0.13123773  0.75480074  1
  C  C473  1  0.54390594  0.12034373  0.77650200  1
  C  C474  1  0.57370915  0.14297948  0.72421943  1
  C  C475  1  0.57809584  0.15290889  0.70461274  1
  C  C476  1  0.95866236  0.52301809  0.09857608  1
  C  C477  1  0.94913466  0.52753163  0.11845885  1
  C  C478  1  0.93804270  0.53333788  0.14087367  1
  C  C479  1  0.92557738  0.54713656  0.13655549  1
  C  C480  1  0.91450451  0.55299161  0.15811255  1
  C  C481  1  0.91513976  0.54547219  0.18578041  1
  C  C482  1  0.92771271  0.53171057  0.19012409  1
  C  C483  1  0.93877094  0.52589420  0.16845509  1
  C  C484  1  0.90332960  0.55169058  0.20895465  1
  C  C485  1  0.90390612  0.54420396  0.23663700  1
  C  C486  1  0.89289855  0.55018705  0.25822159  1
  C  C487  1  0.88062892  0.56421540  0.25403531  1
  C  C488  1  0.87980205  0.57141154  0.22632800  1
  C  C489  1  0.89078411  0.56545767  0.20461204  1
  C  C490  1  0.86936913  0.57006156  0.27638818  1
  C  C491  1  0.85942089  0.57360504  0.29641340  1
  C  C492  1  0.48875750  0.95294374  0.09819808  1
  C  C493  1  0.48421026  0.94334798  0.11801406  1
  C  C494  1  0.47834048  0.93228251  0.14044795  1
  C  C495  1  0.46118871  0.92455885  0.14005985  1
  C  C496  1  0.45529873  0.91353192  0.16170036  1
  C  C497  1  0.46617396  0.90947580  0.18548264  1
  C  C498  1  0.48331819  0.91733790  0.18593442  1
  C  C499  1  0.48914991  0.92836792  0.16420376  1
  C  C500  1  0.45992132  0.89766974  0.20867698  1
  C  C501  1  0.47072484  0.89354763  0.23250317  1
  C  C502  1  0.46472680  0.88256848  0.25416163  1
  C  C503  1  0.44746147  0.87499515  0.25388321  1
  C  C504  1  0.43683352  0.87888032  0.22997225  1
  C  C505  1  0.44278044  0.88984539  0.20818971  1
  C  C506  1  0.44143509  0.86375920  0.27617827  1
  C  C507  1  0.43787373  0.85375786  0.29616404  1
  C  C508  1  0.52890613  0.05349708  0.09842160  1
  C  C509  1  0.53355216  0.06311231  0.11821963  1
  C  C510  1  0.53934158  0.07415067  0.14083127  1
  C  C511  1  0.55673958  0.07303248  0.15203363  1
  C  C512  1  0.56248555  0.08404122  0.17390281  1
  C  C513  1  0.55119975  0.09700584  0.18627820  1
  C  C514  1  0.53372667  0.09803184  0.17512028  1
  C  C515  1  0.52804412  0.08698190  0.15324927  1
  C  C516  1  0.55736892  0.10881399  0.20963621  1
  C  C517  1  0.54619548  0.12181982  0.22213969  1
  C  C518  1  0.55204494  0.13278885  0.24404105  1
  C  C519  1  0.56950511  0.13161514  0.25521729  1
  C  C520  1  0.58063282  0.11872655  0.24259381  1
  C  C521  1  0.57483909  0.10772859  0.22070690  1
  C  C522  1  0.57565508  0.14251509  0.27790738  1
  C  C523  1  0.58000679  0.15220434  0.29792815  1
  C  C524  1  0.05866641  0.48313500  0.09882046  1
  C  C525  1  0.06817743  0.47859461  0.11873344  1
  C  C526  1  0.07930684  0.47281480  0.14115856  1
  C  C527  1  0.07604948  0.47707838  0.16998012  1
  C  C528  1  0.08716120  0.47128367  0.19163049  1
  C  C529  1  0.10235531  0.46073631  0.18604141  1
  C  C530  1  0.10554570  0.45640328  0.15710201  1
  C  C531  1  0.09440815  0.46222010  0.13556682  1
  C  C532  1  0.11421088  0.45455003  0.20923115  1
  C  C533  1  0.12939243  0.44399767  0.20369702  1
  C  C534  1  0.14042166  0.43805142  0.22538984  1
  C  C535  1  0.13705770  0.44201398  0.25431239  1
  C  C536  1  0.12211672  0.45292381  0.25974929  1
  C  C537  1  0.11106037  0.45887695  0.23816613  1
  C  C538  1  0.14811396  0.43595854  0.27680048  1
  C  C539  1  0.15766517  0.43171820  0.29698298  1
  C  C540  1  0.95782057  0.51960918  0.90123602  1
  C  C541  1  0.94834371  0.52446023  0.88149328  1
  C  C542  1  0.93730683  0.53072619  0.85934918  1
  C  C543  1  0.91947854  0.52499678  0.85695636  1
  C  C544  1  0.90848777  0.53105121  0.83543813  1
  C  C545  1  0.91459686  0.54338923  0.81478029  1
  C  C546  1  0.93243589  0.54926889  0.81737024  1
  C  C547  1  0.94336918  0.54316811  0.83894718  1
  C  C548  1  0.90292783  0.54983012  0.79166732  1
  C  C549  1  0.90896042  0.56217953  0.77097773  1
  C  C550  1  0.89798418  0.56810313  0.74933344  1
  C  C551  1  0.88021884  0.56210816  0.74666200  1
  C  C552  1  0.87417211  0.54986008  0.76749005  1
  C  C553  1  0.88510168  0.54391797  0.78914420  1
  C  C554  1  0.86917415  0.56782954  0.72417513  1
  C  C555  1  0.85941966  0.57157078  0.70403833  1
  C  C556  1  0.49229753  0.95211532  0.90119150  1
  C  C557  1  0.48753715  0.94255399  0.88142093  1
  C  C558  1  0.48115142  0.93148590  0.85931106  1
  C  C559  1  0.49266057  0.92448711  0.83843521  1
  C  C560  1  0.48648719  0.91358826  0.81677160  1
  C  C561  1  0.46828339  0.90893154  0.81450489  1
  C  C562  1  0.45672257  0.91596967  0.83548572  1
  C  C563  1  0.46296906  0.92686287  0.85708570  1
  C  C564  1  0.46174213  0.89728605  0.79133403  1
  C  C565  1  0.44357010  0.89254663  0.78889057  1
  C  C566  1  0.43748339  0.88162511  0.76716483  1
  C  C567  1  0.44907577  0.87463337  0.74631186  1
  C  C568  1  0.46725900  0.87941765  0.74878214  1
  C  C569  1  0.47337932  0.89031083  0.77042682  1
  C  C570  1  0.44303075  0.86346035  0.72409675  1
  C  C571  1  0.43955862  0.85366989  0.70381476  1
  N  N572  1  0.02548000  0.49640720  0.03014262  1
  N  N573  1  0.02618732  0.49846942  0.97007337  1
  N  N574  1  0.99189668  0.50980829  0.03007236  1
  N  N575  1  0.99119025  0.50775831  0.97005670  1
  N  N576  1  0.51540918  0.02000262  0.03010351  1
  N  N577  1  0.51331574  0.02070132  0.97017466  1
  N  N578  1  0.50192791  0.98636065  0.02994570  1
  N  N579  1  0.50399861  0.98562129  0.97008597  1
  O  O580  1  0.53506778  0.51295090  0.52449497  1
  O  O581  1  0.53463286  0.51387149  0.47636783  1
  O  O582  1  0.51811513  0.47823806  0.52192963  1
  O  O583  1  0.51814484  0.47847432  0.47363172  1
  O  O584  1  0.48343249  0.49452971  0.47560546  1
  O  O585  1  0.48392372  0.49361123  0.52388518  1
  O  O586  1  0.49881616  0.52942269  0.52637316  1
  O  O587  1  0.49879503  0.52967999  0.47822433  1
  O  O588  1  0.21723565  0.41860773  0.43347856  1
  O  O589  1  0.22239286  0.41859674  0.57347871  1
  O  O590  1  0.28146006  0.43198678  0.48868979  1
  O  O591  1  0.59354092  0.21200647  0.43411462  1
  O  O592  1  0.59338828  0.21723230  0.57386939  1
  O  O593  1  0.58021257  0.27599370  0.48888705  1
  O  O594  1  0.79968661  0.56747541  0.56598344  1
  O  O595  1  0.79473035  0.56762487  0.42653745  1
  O  O596  1  0.73501185  0.58139187  0.51087307  1
  O  O597  1  0.44414220  0.79410251  0.56549330  1
  O  O598  1  0.44382502  0.78900780  0.42623331  1
  O  O599  1  0.43022301  0.72943804  0.51055875  1
  F  F600  1  0.00111059  0.48021760  -0.00010370  1
  F  F601  1  0.01627009  0.52600297  -0.00000443  1
  F  F602  1  0.53145102  0.99560315  -0.00000535  1
  F  F603  1  0.48586611  0.01075071  -0.00007811  1
