# generated using pymatgen
data_MgH100C145O14
_symmetry_space_group_name_H-M   'P 1'
_cell_length_a   64.74077796
_cell_length_b   66.90479316
_cell_length_c   35.39404488
_cell_angle_alpha   89.95256443
_cell_angle_beta   90.07773714
_cell_angle_gamma   99.24678599
_symmetry_Int_Tables_number   1
_chemical_formula_structural   MgH100C145O14
_chemical_formula_sum   'Mg2 H200 C290 O28'
_cell_volume   151315.83598525
_cell_formula_units_Z   2
loop_
 _symmetry_equiv_pos_site_id
 _symmetry_equiv_pos_as_xyz
  1  'x, y, z'
loop_
 _atom_site_type_symbol
 _atom_site_label
 _atom_site_symmetry_multiplicity
 _atom_site_fract_x
 _atom_site_fract_y
 _atom_site_fract_z
 _atom_site_occupancy
  Mg  Mg0  1  0.00284857  0.50845526  0.00095880  1
  Mg  Mg1  1  0.50274486  0.00891065  0.00088770  1
  H  H2  1  0.48752320  0.46841043  0.50247666  1
  H  H3  1  0.45252946  0.52562881  0.49438064  1
  H  H4  1  0.55297908  0.49297973  0.50582352  1
  H  H5  1  0.51788307  0.55114996  0.49770627  1
  H  H6  1  0.13604577  0.44747895  0.26571077  1
  H  H7  1  0.11422985  0.40293883  0.27411560  1
  H  H8  1  0.12929078  0.38381341  0.32513478  1
  H  H9  1  0.15170481  0.38296505  0.38089616  1
  H  H10  1  0.17442962  0.44682899  0.36832641  1
  H  H11  1  0.15182471  0.44814827  0.31298347  1
  H  H12  1  0.17917385  0.38570468  0.42039991  1
  H  H13  1  0.15738986  0.39396830  0.44227346  1
  H  H14  1  0.15124822  0.42311012  0.52474695  1
  H  H15  1  0.14671107  0.39892420  0.50372755  1
  H  H16  1  0.15091618  0.42093021  0.47504560  1
  H  H17  1  0.20893695  0.39493848  0.40803698  1
  H  H18  1  0.22030597  0.37892697  0.43901643  1
  H  H19  1  0.23402387  0.40307133  0.42652285  1
  H  H20  1  0.22201779  0.43602324  0.58287479  1
  H  H21  1  0.24152426  0.44093632  0.54747280  1
  H  H22  1  0.23771160  0.41768426  0.57210790  1
  H  H23  1  0.25155238  0.40696531  0.52345155  1
  H  H24  1  0.24873174  0.39967708  0.47516986  1
  H  H25  1  0.27916981  0.40246770  0.49413507  1
  H  H26  1  0.31726236  0.40960344  0.49933210  1
  H  H27  1  0.31582607  0.47323366  0.47926822  1
  H  H28  1  0.27696236  0.46604564  0.47638118  1
  H  H29  1  0.34773828  0.46134857  0.47263190  1
  H  H30  1  0.35181168  0.41840603  0.50066924  1
  H  H31  1  0.19568382  0.44526048  0.57225361  1
  H  H32  1  0.16937126  0.43654920  0.55986419  1
  H  H33  1  0.17602038  0.45524457  0.61092592  1
  H  H34  1  0.15270691  0.46407450  0.66076004  1
  H  H35  1  0.14380029  0.40220426  0.70113498  1
  H  H36  1  0.16650830  0.39329551  0.64966291  1
  H  H37  1  0.13117560  0.45609456  0.71357438  1
  H  H38  1  0.12341487  0.41208367  0.74473304  1
  H  H39  1  0.56547459  0.15835248  0.26878440  1
  H  H40  1  0.61111159  0.15068027  0.27913521  1
  H  H41  1  0.63063073  0.17097109  0.33078556  1
  H  H42  1  0.63140023  0.19307212  0.38623217  1
  H  H43  1  0.56584463  0.19601526  0.37086327  1
  H  H44  1  0.56462380  0.17363983  0.31573762  1
  H  H45  1  0.62865654  0.21980514  0.42430477  1
  H  H46  1  0.61987515  0.19621292  0.44657202  1
  H  H47  1  0.59015296  0.18116776  0.52890676  1
  H  H48  1  0.61505427  0.18459469  0.50760469  1
  H  H49  1  0.59219827  0.18141657  0.47919425  1
  H  H50  1  0.61864475  0.24559330  0.41099736  1
  H  H51  1  0.63540781  0.26153482  0.44189864  1
  H  H52  1  0.61069261  0.26755365  0.42907290  1
  H  H53  1  0.57646221  0.24562230  0.58589983  1
  H  H54  1  0.57174545  0.26317577  0.55059029  1
  H  H55  1  0.59576564  0.26646731  0.57528833  1
  H  H56  1  0.60692112  0.28335903  0.52603219  1
  H  H57  1  0.61356208  0.28298779  0.47732812  1
  H  H58  1  0.61168749  0.31200189  0.49770790  1
  H  H59  1  0.60514071  0.34688630  0.50160001  1
  H  H60  1  0.53927377  0.32633398  0.48064426  1
  H  H61  1  0.54583699  0.29077396  0.47869496  1
  H  H62  1  0.55211485  0.36076946  0.47411500  1
  H  H63  1  0.59653395  0.37817612  0.50233484  1
  H  H64  1  0.56762421  0.21718004  0.57692595  1
  H  H65  1  0.57602547  0.19444531  0.56325920  1
  H  H66  1  0.55723597  0.19427039  0.61465899  1
  H  H67  1  0.54805912  0.16865107  0.66413257  1
  H  H68  1  0.61214539  0.17905181  0.70374436  1
  H  H69  1  0.62142793  0.20405439  0.65253405  1
  H  H70  1  0.55636093  0.14988895  0.71664221  1
  H  H71  1  0.60202345  0.15600487  0.74694236  1
  H  H72  1  0.88047841  0.60095409  0.74037502  1
  H  H73  1  0.87870408  0.55550595  0.71980976  1
  H  H74  1  0.85996898  0.54115864  0.66868065  1
  H  H75  1  0.83734514  0.54254257  0.61334065  1
  H  H76  1  0.83700464  0.60615444  0.63366124  1
  H  H77  1  0.85957322  0.60482110  0.68991115  1
  H  H78  1  0.81168510  0.54609251  0.57870295  1
  H  H79  1  0.83601346  0.55431990  0.55618268  1
  H  H80  1  0.85189583  0.58269291  0.47404952  1
  H  H81  1  0.84808466  0.55875133  0.49604586  1
  H  H82  1  0.85156705  0.58104642  0.52383783  1
  H  H83  1  0.78538951  0.55518624  0.59168416  1
  H  H84  1  0.76932104  0.53884833  0.56049675  1
  H  H85  1  0.76239441  0.56238658  0.57399389  1
  H  H86  1  0.78531641  0.59643673  0.41681561  1
  H  H87  1  0.76706446  0.60122106  0.45177141  1
  H  H88  1  0.76383830  0.57775605  0.42789676  1
  H  H89  1  0.74630757  0.56788842  0.47796652  1
  H  H90  1  0.74691936  0.56247842  0.52721486  1
  H  H91  1  0.71812536  0.56277960  0.50740096  1
  H  H92  1  0.68173900  0.56635304  0.51031231  1
  H  H93  1  0.69872976  0.63149560  0.51966337  1
  H  H94  1  0.73601408  0.62727541  0.52324222  1
  H  H95  1  0.65855641  0.61348620  0.51530509  1
  H  H96  1  0.65936773  0.57242633  0.47692234  1
  H  H97  1  0.81508352  0.60621371  0.42743099  1
  H  H98  1  0.83833295  0.59720682  0.44008519  1
  H  H99  1  0.83893470  0.61539076  0.38597484  1
  H  H100  1  0.86458028  0.62231062  0.33463076  1
  H  H101  1  0.85214918  0.55871899  0.30325930  1
  H  H102  1  0.82613497  0.55244319  0.35407969  1
  H  H103  1  0.88507093  0.60958359  0.28076445  1
  H  H104  1  0.86761384  0.56500872  0.26010419  1
  H  H105  1  0.40736752  0.86024490  0.73563610  1
  H  H106  1  0.45455651  0.87244090  0.71606366  1
  H  H107  1  0.46938322  0.85849832  0.66524237  1
  H  H108  1  0.46780988  0.83588083  0.61037678  1
  H  H109  1  0.40182254  0.81616446  0.62999424  1
  H  H110  1  0.40335940  0.83869403  0.68578138  1
  H  H111  1  0.46383201  0.80965978  0.57614791  1
  H  H112  1  0.45580276  0.83069466  0.55322859  1
  H  H113  1  0.42661878  0.83735401  0.47115227  1
  H  H114  1  0.45133179  0.84115172  0.49324112  1
  H  H115  1  0.42825673  0.83739600  0.52092310  1
  H  H116  1  0.45437938  0.78129106  0.58870584  1
  H  H117  1  0.47112988  0.77075773  0.55767951  1
  H  H118  1  0.44661516  0.75678692  0.57095600  1
  H  H119  1  0.41226966  0.76867689  0.41337705  1
  H  H120  1  0.40730443  0.74934306  0.44820556  1
  H  H121  1  0.43155092  0.75381210  0.42437101  1
  H  H122  1  0.44185005  0.73976787  0.47440594  1
  H  H123  1  0.44751431  0.74202578  0.52356531  1
  H  H124  1  0.44721011  0.71358478  0.50419688  1
  H  H125  1  0.44335003  0.67714649  0.50802373  1
  H  H126  1  0.37612020  0.67301456  0.51760807  1
  H  H127  1  0.38066851  0.71046583  0.52054090  1
  H  H128  1  0.39421726  0.63988142  0.51379134  1
  H  H129  1  0.43677043  0.65319838  0.47537758  1
  H  H130  1  0.40237689  0.79464643  0.42368451  1
  H  H131  1  0.41160914  0.81983396  0.43763252  1
  H  H132  1  0.39298102  0.81629952  0.38374331  1
  H  H133  1  0.38597515  0.83917904  0.33270144  1
  H  H134  1  0.45130432  0.84618261  0.29952767  1
  H  H135  1  0.45770811  0.82291520  0.35026519  1
  H  H136  1  0.39899395  0.86292966  0.27871446  1
  H  H137  1  0.44475754  0.86000063  0.25664905  1
  H  H138  1  0.40473095  0.49222275  0.50134113  1
  H  H139  1  0.36919396  0.47341780  0.51172391  1
  H  H140  1  0.39255319  0.41688407  0.49955675  1
  H  H141  1  0.42864173  0.43571757  0.50062617  1
  H  H142  1  0.52033765  0.40588129  0.50295832  1
  H  H143  1  0.53981367  0.37745203  0.51353920  1
  H  H144  1  0.59823521  0.41824738  0.50058080  1
  H  H145  1  0.57880242  0.44709290  0.50191160  1
  H  H146  1  0.57911713  0.58299105  0.50126423  1
  H  H147  1  0.61521872  0.60140967  0.50203880  1
  H  H148  1  0.63817648  0.54435014  0.50316684  1
  H  H149  1  0.60203245  0.52619096  0.50192030  1
  H  H150  1  0.48395805  0.61234281  0.49983266  1
  H  H151  1  0.46526131  0.64166912  0.50162401  1
  H  H152  1  0.40616878  0.60126133  0.50100095  1
  H  H153  1  0.42505887  0.57215119  0.50003197  1
  H  H154  1  0.07311474  0.47612215  0.78021388  1
  H  H155  1  0.03982925  0.45581406  0.82312330  1
  H  H156  1  0.08913684  0.49836064  0.84384790  1
  H  H157  1  0.11284505  0.46825628  0.86294075  1
  H  H158  1  0.06361839  0.42576572  0.84222387  1
  H  H159  1  0.07958934  0.44797667  0.90590023  1
  H  H160  1  0.57790909  0.11606841  0.87788613  1
  H  H161  1  0.53531096  0.11092221  0.89662866  1
  H  H162  1  0.57558134  0.07414775  0.86919254  1
  H  H163  1  0.56502265  0.07714083  0.79277257  1
  H  H164  1  0.52467707  0.11393885  0.82021156  1
  H  H165  1  0.52237241  0.07196749  0.81140261  1
  H  H166  1  0.89242062  0.54338763  0.14881080  1
  H  H167  1  0.91945140  0.56313994  0.09391243  1
  H  H168  1  0.92232198  0.51935886  0.16924611  1
  H  H169  1  0.93944791  0.54842063  0.22249278  1
  H  H170  1  0.93657648  0.59217554  0.14728729  1
  H  H171  1  0.96667603  0.56823231  0.16772482  1
  H  H172  1  0.43309062  0.93948006  0.19851391  1
  H  H173  1  0.47675127  0.94916341  0.19073745  1
  H  H174  1  0.42835583  0.93803308  0.11965233  1
  H  H175  1  0.43182123  0.89682151  0.11981085  1
  H  H176  1  0.48005527  0.90786502  0.19073965  1
  H  H177  1  0.47539124  0.90646391  0.11194701  1
  H  H178  1  0.58900747  0.09621067  0.15727432  1
  H  H179  1  0.55920536  0.06212827  0.17526711  1
  H  H180  1  0.56405455  0.10539044  0.09666854  1
  H  H181  1  0.54321025  0.12895396  0.14432264  1
  H  H182  1  0.53849013  0.08590945  0.22298699  1
  H  H183  1  0.51361092  0.09503158  0.16246028  1
  H  H184  1  0.10745804  0.45648484  0.12671035  1
  H  H185  1  0.06715918  0.44036448  0.10179003  1
  H  H186  1  0.09498960  0.49407098  0.13945740  1
  H  H187  1  0.08325214  0.48253213  0.21349095  1
  H  H188  1  0.05536064  0.42875661  0.17590294  1
  H  H189  1  0.04278012  0.46645142  0.18881297  1
  H  H190  1  0.94534252  0.55609283  0.78209440  1
  H  H191  1  0.96569766  0.57416520  0.84648838  1
  H  H192  1  0.93098472  0.52073629  0.82320263  1
  H  H193  1  0.89487682  0.53614666  0.84400818  1
  H  H194  1  0.92943200  0.58946327  0.86724067  1
  H  H195  1  0.91513263  0.55411563  0.90835312  1
  H  H196  1  0.41717904  0.91474240  0.85589322  1
  H  H197  1  0.44956265  0.90873507  0.90548009  1
  H  H198  1  0.43883147  0.95322126  0.83664528  1
  H  H199  1  0.45937685  0.93623764  0.77802602  1
  H  H200  1  0.47015895  0.89189271  0.84678773  1
  H  H201  1  0.49167891  0.93025186  0.82747174  1
  C  C202  1  0.97944150  0.51481254  0.07302982  1
  C  C203  1  0.02603404  0.50235731  0.92864236  1
  C  C204  1  0.02561567  0.50213245  0.07044106  1
  C  C205  1  0.98014801  0.51456847  0.93170884  1
  C  C206  1  0.48862326  0.98618124  0.92939816  1
  C  C207  1  0.51680378  0.03194758  0.07237117  1
  C  C208  1  0.51686976  0.03054072  0.93335154  1
  C  C209  1  0.48863116  0.98685590  0.06853396  1
  C  C210  1  0.48455998  0.54072079  0.49743296  1
  C  C211  1  0.50567327  0.53793495  0.49835385  1
  C  C212  1  0.51111597  0.51852364  0.49988659  1
  C  C213  1  0.53676776  0.49545173  0.50350362  1
  C  C214  1  0.53258500  0.51523710  0.50154798  1
  C  C215  1  0.52084037  0.47839450  0.50263044  1
  C  C216  1  0.49991505  0.48146655  0.50175477  1
  C  C217  1  0.49501315  0.50103524  0.50018189  1
  C  C218  1  0.47355469  0.50396690  0.49851927  1
  C  C219  1  0.46885587  0.52352718  0.49657955  1
  C  C220  1  0.12403367  0.43413948  0.26133747  1
  C  C221  1  0.12454342  0.41677337  0.28231835  1
  C  C222  1  0.13824724  0.41603618  0.31429750  1
  C  C223  1  0.13891066  0.39780916  0.33460966  1
  C  C224  1  0.15143657  0.39731501  0.36637926  1
  C  C225  1  0.16380415  0.41514601  0.37907925  1
  C  C226  1  0.16427139  0.43314366  0.35881558  1
  C  C227  1  0.15155294  0.43369386  0.32732036  1
  C  C228  1  0.17406341  0.39848670  0.43538218  1
  C  C229  1  0.18747346  0.40470293  0.46939042  1
  C  C230  1  0.20903368  0.40368344  0.46730475  1
  C  C231  1  0.22185131  0.41077918  0.49823920  1
  C  C232  1  0.21405970  0.42032176  0.52955251  1
  C  C233  1  0.19252402  0.42158536  0.53064567  1
  C  C234  1  0.17901327  0.41354023  0.50103881  1
  C  C235  1  0.15594374  0.41422848  0.50126414  1
  C  C236  1  0.21843968  0.39479731  0.43364626  1
  C  C237  1  0.22939244  0.42918341  0.55943420  1
  C  C238  1  0.24481848  0.41057061  0.49613194  1
  C  C239  1  0.27584910  0.43400765  0.48583787  1
  C  C240  1  0.28708883  0.41807736  0.49188174  1
  C  C241  1  0.30872122  0.42207285  0.49375033  1
  C  C242  1  0.31957945  0.44190482  0.48767504  1
  C  C243  1  0.30768046  0.45773869  0.48211302  1
  C  C244  1  0.28604234  0.45386210  0.48093972  1
  C  C245  1  0.34209265  0.44682146  0.48605797  1
  C  C246  1  0.35622592  0.43469576  0.49644137  1
  C  C247  1  0.18458153  0.43162447  0.56431112  1
  C  C248  1  0.17132835  0.42331130  0.62563435  1
  C  C249  1  0.16826730  0.44343865  0.62964877  1
  C  C250  1  0.15564830  0.44853101  0.65838666  1
  C  C251  1  0.14624122  0.43396435  0.68489112  1
  C  C252  1  0.15058593  0.41386683  0.68123773  1
  C  C253  1  0.16326139  0.40873569  0.65231168  1
  C  C254  1  0.13311226  0.44020125  0.71390245  1
  C  C255  1  0.12271051  0.42824845  0.74207137  1
  C  C256  1  0.57912469  0.15073936  0.26514536  1
  C  C257  1  0.59690007  0.15652620  0.28672710  1
  C  C258  1  0.59758456  0.17007236  0.31853925  1
  C  C259  1  0.61625004  0.17617529  0.33956274  1
  C  C260  1  0.61668931  0.18855091  0.37113309  1
  C  C261  1  0.59835440  0.19530412  0.38287639  1
  C  C262  1  0.57991815  0.19025979  0.36200344  1
  C  C263  1  0.57942432  0.17770795  0.33067435  1
  C  C264  1  0.61531176  0.21088327  0.43917639  1
  C  C265  1  0.60871333  0.22203432  0.47279904  1
  C  C266  1  0.60951599  0.24320413  0.47019763  1
  C  C267  1  0.60203684  0.25344227  0.50081509  1
  C  C268  1  0.59261176  0.24286925  0.53261491  1
  C  C269  1  0.59155699  0.22164312  0.53425427  1
  C  C270  1  0.59979950  0.21108380  0.50471498  1
  C  C271  1  0.59920568  0.18854455  0.50524829  1
  C  C272  1  0.61892090  0.25494297  0.43645766  1
  C  C273  1  0.58368504  0.25494310  0.56254660  1
  C  C274  1  0.60253563  0.27584484  0.49880362  1
  C  C275  1  0.57896422  0.29921223  0.48901243  1
  C  C276  1  0.59568649  0.31496428  0.49493017  1
  C  C277  1  0.59203266  0.33482027  0.49613614  1
  C  C278  1  0.57176268  0.33943294  0.48962189  1
  C  C279  1  0.55513905  0.32309225  0.48399912  1
  C  C280  1  0.55866759  0.30322582  0.48342416  1
  C  C281  1  0.56706402  0.35980392  0.48767450  1
  C  C282  1  0.57971299  0.37730097  0.49806466  1
  C  C283  1  0.58145643  0.21065086  0.56816976  1
  C  C284  1  0.59030767  0.19960565  0.62887297  1
  C  C285  1  0.56946707  0.19033284  0.63309184  1
  C  C286  1  0.56417814  0.17633443  0.66165932  1
  C  C287  1  0.57924929  0.17157177  0.68784932  1
  C  C288  1  0.60007168  0.18207647  0.68403624  1
  C  C289  1  0.60541344  0.19610084  0.65523408  1
  C  C290  1  0.57283426  0.15671835  0.71671741  1
  C  C291  1  0.58530116  0.15017484  0.74442745  1
  C  C292  1  0.88302323  0.58521942  0.74151524  1
  C  C293  1  0.87478614  0.57060664  0.71557986  1
  C  C294  1  0.86167129  0.57276202  0.68361593  1
  C  C295  1  0.85500384  0.55543643  0.66098579  1
  C  C296  1  0.84250493  0.55628528  0.62955482  1
  C  C297  1  0.83646470  0.57471313  0.61945961  1
  C  C298  1  0.84226526  0.59203919  0.64162536  1
  C  C299  1  0.85484732  0.59117504  0.67320394  1
  C  C300  1  0.82087054  0.55882549  0.56333105  1
  C  C301  1  0.80939316  0.56504184  0.52968730  1
  C  C302  1  0.78759078  0.56454434  0.53270496  1
  C  C303  1  0.77716294  0.57262225  0.50273961  1
  C  C304  1  0.78815932  0.58135190  0.47071774  1
  C  C305  1  0.81010080  0.58243741  0.46917855  1
  C  C306  1  0.82089599  0.57389946  0.49819584  1
  C  C307  1  0.84415756  0.57416740  0.49787671  1
  C  C308  1  0.77566883  0.55488091  0.56623640  1
  C  C309  1  0.77567523  0.58964549  0.44031177  1
  C  C310  1  0.75412852  0.57269615  0.50493047  1
  C  C311  1  0.72957629  0.59498564  0.51387410  1
  C  C312  1  0.71417070  0.57796264  0.50979705  1
  C  C313  1  0.69327214  0.58012311  0.50974478  1
  C  C314  1  0.68685502  0.59936500  0.51139076  1
  C  C315  1  0.70285777  0.61638617  0.51700306  1
  C  C316  1  0.72387742  0.61415622  0.51867648  1
  C  C317  1  0.66455410  0.59963748  0.50826372  1
  C  C318  1  0.65207848  0.58257232  0.49508446  1
  C  C319  1  0.82145903  0.59248917  0.43553867  1
  C  C320  1  0.83201185  0.58313451  0.37450709  1
  C  C321  1  0.84229744  0.60294905  0.36834782  1
  C  C322  1  0.85644432  0.60688214  0.33887103  1
  C  C323  1  0.86063845  0.59119948  0.31436050  1
  C  C324  1  0.84930961  0.57144012  0.32063455  1
  C  C325  1  0.83479909  0.56764908  0.34964211  1
  C  C326  1  0.87587834  0.59457661  0.28458466  1
  C  C327  1  0.87886195  0.57914739  0.26027663  1
  C  C328  1  0.42363476  0.86774734  0.73676925  1
  C  C329  1  0.43886759  0.86404730  0.71149175  1
  C  C330  1  0.43661669  0.85053043  0.67978712  1
  C  C331  1  0.45454686  0.84926523  0.65750045  1
  C  C332  1  0.45358811  0.83674044  0.62631837  1
  C  C333  1  0.43444735  0.82517408  0.61614509  1
  C  C334  1  0.41650606  0.82561376  0.63798906  1
  C  C335  1  0.41748041  0.83822259  0.66930748  1
  C  C336  1  0.45084813  0.81463817  0.56050055  1
  C  C337  1  0.44440099  0.80157232  0.52681040  1
  C  C338  1  0.44484931  0.78060521  0.52965049  1
  C  C339  1  0.43669784  0.76802941  0.49940933  1
  C  C340  1  0.42783898  0.77605924  0.46731387  1
  C  C341  1  0.42685636  0.79699480  0.46576795  1
  C  C342  1  0.43551839  0.81001918  0.49513000  1
  C  C343  1  0.43536458  0.83247033  0.49497024  1
  C  C344  1  0.45460627  0.77198319  0.56328061  1
  C  C345  1  0.41927003  0.76142583  0.43680466  1
  C  C346  1  0.43683575  0.74568388  0.50139672  1
  C  C347  1  0.41399709  0.71447851  0.51081642  1
  C  C348  1  0.43151190  0.70492593  0.50689518  1
  C  C349  1  0.42917252  0.68397225  0.50734526  1
  C  C350  1  0.40923730  0.67166658  0.50929445  1
  C  C351  1  0.39175494  0.68180281  0.51476560  1
  C  C352  1  0.39417223  0.70287071  0.51601441  1
  C  C353  1  0.40864312  0.64993243  0.50658504  1
  C  C354  1  0.42605567  0.64300221  0.49337175  1
  C  C355  1  0.41653489  0.80512676  0.43226080  1
  C  C356  1  0.42618074  0.81926262  0.37154473  1
  C  C357  1  0.40583077  0.82331793  0.36584945  1
  C  C358  1  0.40183319  0.83593249  0.33652097  1
  C  C359  1  0.41795206  0.84478658  0.31161219  1
  C  C360  1  0.43822064  0.83968256  0.31736172  1
  C  C361  1  0.44208898  0.82675031  0.34631634  1
  C  C362  1  0.41443409  0.85861099  0.28199175  1
  C  C363  1  0.43016039  0.86636135  0.25717352  1
  C  C364  1  0.41937676  0.46533823  0.50024704  1
  C  C365  1  0.40192325  0.47570488  0.50199766  1
  C  C366  1  0.38189867  0.46527088  0.50452763  1
  C  C367  1  0.45699389  0.48739450  0.49888166  1
  C  C368  1  0.39517255  0.43337741  0.50034694  1
  C  C369  1  0.41534392  0.44384712  0.50069595  1
  C  C370  1  0.43982741  0.47647798  0.49934852  1
  C  C371  1  0.37777778  0.44388226  0.50031889  1
  C  C372  1  0.54809626  0.42847705  0.50231642  1
  C  C373  1  0.53740398  0.40835262  0.50369045  1
  C  C374  1  0.54820751  0.39234469  0.50617183  1
  C  C375  1  0.52703837  0.45904152  0.50264663  1
  C  C376  1  0.58119413  0.41547729  0.50164172  1
  C  C377  1  0.57038327  0.43161359  0.50221548  1
  C  C378  1  0.53625651  0.44440303  0.50234502  1
  C  C379  1  0.57030737  0.39526020  0.50185953  1
  C  C380  1  0.58763945  0.55318113  0.50174166  1
  C  C381  1  0.59223262  0.57461795  0.50188027  1
  C  C382  1  0.61263302  0.58491745  0.50211674  1
  C  C383  1  0.54984488  0.53121455  0.50135107  1
  C  C384  1  0.62522501  0.55291705  0.50226028  1
  C  C385  1  0.60499253  0.54270604  0.50219890  1
  C  C386  1  0.56697703  0.54222620  0.50144220  1
  C  C387  1  0.62990847  0.57433468  0.50110981  1
  C  C388  1  0.45600203  0.59008228  0.49938779  1
  C  C389  1  0.46690179  0.61009525  0.50021139  1
  C  C390  1  0.45640641  0.62639713  0.50066695  1
  C  C391  1  0.47759000  0.55977518  0.49750427  1
  C  C392  1  0.42321416  0.60397642  0.50074469  1
  C  C393  1  0.43378622  0.58751126  0.50026872  1
  C  C394  1  0.46786074  0.57407546  0.49825933  1
  C  C395  1  0.43428376  0.62406042  0.49955869  1
  C  C396  1  0.07455020  0.46987058  0.80817544  1
  C  C397  1  0.05604589  0.45863612  0.83206837  1
  C  C398  1  0.06451095  0.47127326  0.86834022  1
  C  C399  1  0.08336828  0.48223778  0.84359417  1
  C  C400  1  0.08813402  0.45283285  0.81797939  1
  C  C401  1  0.09662158  0.46547488  0.85401943  1
  C  C402  1  0.06932529  0.44190096  0.84251211  1
  C  C403  1  0.07799232  0.45437549  0.87813537  1
  C  C404  1  0.05197340  0.48117180  0.89234950  1
  C  C405  1  0.04041266  0.49051799  0.91015817  1
  C  C406  1  0.10007747  0.44374508  0.79193478  1
  C  C407  1  0.11070611  0.43646954  0.76851378  1
  C  C408  1  0.56557090  0.10633570  0.86294802  1
  C  C409  1  0.54180934  0.10323426  0.87366896  1
  C  C410  1  0.54020953  0.07965347  0.86948133  1
  C  C411  1  0.56422627  0.08295059  0.85830449  1
  C  C412  1  0.55999278  0.10845163  0.81989309  1
  C  C413  1  0.55840075  0.08469531  0.81579329  1
  C  C414  1  0.53601396  0.10510030  0.83104992  1
  C  C415  1  0.53470476  0.08175377  0.82624976  1
  C  C416  1  0.53038298  0.06413693  0.89348731  1
  C  C417  1  0.52321024  0.04934937  0.91241953  1
  C  C418  1  0.56951442  0.12301594  0.79407025  1
  C  C419  1  0.57692963  0.13576527  0.77075176  1
  C  C420  1  0.90894008  0.54889948  0.15296706  1
  C  C421  1  0.92412486  0.55973102  0.12228935  1
  C  C422  1  0.94106324  0.54623219  0.13284821  1
  C  C423  1  0.92559817  0.53554075  0.16423915  1
  C  C424  1  0.91819965  0.56542088  0.18317086  1
  C  C425  1  0.93510427  0.55166659  0.19382179  1
  C  C426  1  0.93339567  0.57599870  0.15228518  1
  C  C427  1  0.95020322  0.56261943  0.16332820  1
  C  C428  1  0.95340030  0.53607779  0.10887027  1
  C  C429  1  0.96492518  0.52664259  0.09116491  1
  C  C430  1  0.90639537  0.57434942  0.20984366  1
  C  C431  1  0.89493375  0.57992501  0.23395633  1
  C  C432  1  0.44250086  0.93211852  0.17931003  1
  C  C433  1  0.46674271  0.93754825  0.17494171  1
  C  C434  1  0.46448353  0.93720355  0.13033909  1
  C  C435  1  0.43996365  0.93144974  0.13538274  1
  C  C436  1  0.44400688  0.90890448  0.17994627  1
  C  C437  1  0.44176498  0.90841319  0.13575287  1
  C  C438  1  0.46864069  0.91465950  0.17487759  1
  C  C439  1  0.46607898  0.91401560  0.13101441  1
  C  C440  1  0.47462504  0.95274582  0.10665632  1
  C  C441  1  0.48203189  0.96769559  0.08833587  1
  C  C442  1  0.43481174  0.89460664  0.20670116  1
  C  C443  1  0.42917420  0.88170186  0.23090661  1
  C  C444  1  0.57225696  0.09600537  0.15856804  1
  C  C445  1  0.55576949  0.07704648  0.16848410  1
  C  C446  1  0.54168526  0.08166123  0.13386059  1
  C  C447  1  0.55831418  0.10086167  0.12462163  1
  C  C448  1  0.56105321  0.10947686  0.18559332  1
  C  C449  1  0.54686434  0.11414604  0.15134010  1
  C  C450  1  0.54418392  0.09018785  0.19487371  1
  C  C451  1  0.53034587  0.09513726  0.16107426  1
  C  C452  1  0.53261628  0.06626804  0.10879946  1
  C  C453  1  0.52522803  0.05140451  0.09018048  1
  C  C454  1  0.57050498  0.12341596  0.21275969  1
  C  C455  1  0.57699235  0.13588886  0.23720459  1
  C  C456  1  0.09309357  0.45863020  0.14066562  1
  C  C457  1  0.07053993  0.44986196  0.12651298  1
  C  C458  1  0.06318455  0.47093310  0.13293050  1
  C  C459  1  0.08602139  0.47959940  0.14746321  1
  C  C460  1  0.08685522  0.45184033  0.18234567  1
  C  C461  1  0.07957947  0.47316293  0.18865853  1
  C  C462  1  0.06419605  0.44328624  0.16791716  1
  C  C463  1  0.05714563  0.46421923  0.17495793  1
  C  C464  1  0.05035892  0.48087959  0.10954378  1
  C  C465  1  0.03902745  0.49022190  0.09110500  1
  C  C466  1  0.09855782  0.44265303  0.20897651  1
  C  C467  1  0.10944983  0.43628351  0.23322513  1
  C  C468  1  0.93868262  0.55565565  0.81021500  1
  C  C469  1  0.95000095  0.56561569  0.84603135  1
  C  C470  1  0.94248218  0.54572787  0.86964290  1
  C  C471  1  0.93072266  0.53602975  0.83302165  1
  C  C472  1  0.91821181  0.56460412  0.82108945  1
  C  C473  1  0.91062460  0.54459925  0.84453676  1
  C  C474  1  0.92977384  0.57420749  0.85732722  1
  C  C475  1  0.92205139  0.55445556  0.88046650  1
  C  C476  1  0.95541851  0.53580763  0.89270478  1
  C  C477  1  0.96680158  0.52646895  0.91098717  1
  C  C478  1  0.90614723  0.57380157  0.79537625  1
  C  C479  1  0.89535735  0.57996585  0.77077114  1
  C  C480  1  0.43373404  0.91814179  0.84950738  1
  C  C481  1  0.45179897  0.91504177  0.87731326  1
  C  C482  1  0.46393728  0.93666765  0.86741845  1
  C  C483  1  0.44572734  0.93954671  0.83890909  1
  C  C484  1  0.44481356  0.90834776  0.81641853  1
  C  C485  1  0.45717967  0.93014524  0.80638402  1
  C  C486  1  0.46313614  0.90549475  0.84452976  1
  C  C487  1  0.47513914  0.92692547  0.83403111  1
  C  C488  1  0.47290271  0.95204447  0.89247514  1
  C  C489  1  0.48025034  0.96684065  0.91126486  1
  C  C490  1  0.43534047  0.89403612  0.79016996  1
  C  C491  1  0.42899967  0.88159835  0.76562179  1
  O  O492  1  0.01757606  0.49479696  0.04001935  1
  O  O493  1  0.02515129  0.51865142  0.08716964  1
  O  O494  1  0.98160222  0.51612264  0.03775760  1
  O  O495  1  0.98707411  0.50500802  0.09834943  1
  O  O496  1  0.98816737  0.52206909  0.96202447  1
  O  O497  1  0.98059016  0.49797419  0.91525972  1
  O  O498  1  0.02402326  0.50085077  0.96393691  1
  O  O499  1  0.01842115  0.51237291  0.90364275  1
  O  O500  1  0.50495093  0.03055228  0.96134409  1
  O  O501  1  0.52620844  0.01699530  0.91953259  1
  O  O502  1  0.49108100  0.98677962  0.96457828  1
  O  O503  1  0.49129645  0.99929364  0.90346140  1
  O  O504  1  0.50054085  0.98725272  0.04045093  1
  O  O505  1  0.47933564  1.00015340  0.08333878  1
  O  O506  1  0.51441368  0.03107622  0.03719273  1
  O  O507  1  0.51400464  0.01902328  0.09862018  1
  O  O508  1  0.17627273  0.41598594  0.41017739  1
  O  O509  1  0.18232399  0.41752202  0.59602830  1
  O  O510  1  0.25463320  0.43084411  0.48493473  1
  O  O511  1  0.59739536  0.20731857  0.41359063  1
  O  O512  1  0.59628595  0.21233104  0.59949632  1
  O  O513  1  0.58160954  0.27948432  0.48883910  1
  O  O514  1  0.82466604  0.57644709  0.58830914  1
  O  O515  1  0.81881445  0.57828055  0.40413004  1
  O  O516  1  0.75019728  0.59312543  0.51340848  1
  O  O517  1  0.43258590  0.81302414  0.58525691  1
  O  O518  1  0.43118732  0.80772765  0.40080060  1
  O  O519  1  0.41584001  0.73503643  0.50995552  1
