# generated using pymatgen
data_Be4H187C204N3O25
_symmetry_space_group_name_H-M   'P 1'
_cell_length_a   65.83599419
_cell_length_b   68.75242460
_cell_length_c   34.01292624
_cell_angle_alpha   89.28028644
_cell_angle_beta   90.38878996
_cell_angle_gamma   125.09264531
_symmetry_Int_Tables_number   1
_chemical_formula_structural   Be4H187C204N3O25
_chemical_formula_sum   'Be4 H187 C204 N3 O25'
_cell_volume   125960.11474912
_cell_formula_units_Z   1
loop_
 _symmetry_equiv_pos_site_id
 _symmetry_equiv_pos_as_xyz
  1  'x, y, z'
loop_
 _atom_site_type_symbol
 _atom_site_label
 _atom_site_symmetry_multiplicity
 _atom_site_fract_x
 _atom_site_fract_y
 _atom_site_fract_z
 _atom_site_occupancy
  Be  Be0  1  0.70401990  0.36277974  0.54607918  1
  Be  Be1  1  0.68138669  0.38690944  0.45401777  1
  Be  Be2  1  0.68476078  0.38945159  0.54075627  1
  Be  Be3  1  0.70456759  0.36371382  0.46107444  1
  H  H4  1  0.95532738  0.03747688  -0.00183447  1
  H  H5  1  0.03257139  0.09524567  0.00043055  1
  H  H6  1  0.07265714  0.08360940  0.00184770  1
  H  H7  1  0.04514162  0.00960185  -0.00098724  1
  H  H8  1  0.99499634  0.97277811  -0.00352686  1
  H  H9  1  0.93929644  0.98667447  -0.00124084  1
  H  H10  1  0.84849246  0.36893001  0.75445760  1
  H  H11  1  0.79261752  0.33109106  0.77285547  1
  H  H12  1  0.78347210  0.30535051  0.82819905  1
  H  H13  1  0.79635506  0.29280285  0.88534311  1
  H  H14  1  0.87270994  0.35098924  0.86448614  1
  H  H15  1  0.86006492  0.36391034  0.80731253  1
  H  H16  1  0.81544540  0.28001645  0.92194547  1
  H  H17  1  0.81237445  0.30105484  0.94550443  1
  H  H18  1  0.83701393  0.33555232  0.03073883  1
  H  H19  1  0.81139383  0.31144114  0.00611682  1
  H  H20  1  0.83639988  0.33521071  0.97878353  1
  H  H21  1  0.84242235  0.27602631  0.90703157  1
  H  H22  1  0.83081222  0.25129267  0.93905775  1
  H  H23  1  0.86265880  0.26936503  0.92599015  1
  H  H24  1  0.88901499  0.31175233  0.09029597  1
  H  H25  1  0.90449072  0.30584024  0.05484324  1
  H  H26  1  0.87764062  0.28224028  0.07893300  1
  H  H27  1  0.87520635  0.26310912  0.02675465  1
  H  H28  1  0.86930394  0.25905048  0.97541396  1
  H  H29  1  0.88476571  0.24158243  0.99764575  1
  H  H30  1  0.90812018  0.22461173  1.00088453  1
  H  H31  1  0.97637712  0.29438422  0.98224869  1
  H  H32  1  0.95205284  0.31152410  0.97934371  1
  H  H33  1  0.97889046  0.26005532  0.99262991  1
  H  H34  1  0.92748481  0.21208773  0.00344250  1
  H  H35  1  0.88438143  0.33688268  0.08088836  1
  H  H36  1  0.86372378  0.34341803  0.06277283  1
  H  H37  1  0.88216205  0.36062526  0.11806715  1
  H  H38  1  0.87861073  0.38191042  0.17198752  1
  H  H39  1  0.81152788  0.31630952  0.21172552  1
  H  H40  1  0.81414285  0.29539125  0.15554770  1
  H  H41  1  0.85896491  0.38226843  0.23127558  1
  H  H42  1  0.80389144  0.33971509  0.23851322  1
  H  H43  1  0.55698526  0.25202118  0.23514514  1
  H  H44  1  0.55612161  0.20711956  0.24663697  1
  H  H45  1  0.54008222  0.18138202  0.18746192  1
  H  H46  1  0.51397367  0.16660291  0.12865866  1
  H  H47  1  0.49953531  0.21995762  0.14139080  1
  H  H48  1  0.52374637  0.23333661  0.20266256  1
  H  H49  1  0.47954186  0.15191247  0.08359951  1
  H  H50  1  0.50754499  0.17489998  0.06100187  1
  H  H51  1  0.52188820  0.20752482  0.97193727  1
  H  H52  1  0.52000433  0.18382756  0.99656410  1
  H  H53  1  0.52255627  0.20691648  0.02385894  1
  H  H54  1  0.44570453  0.14439004  0.09776725  1
  H  H55  1  0.42863760  0.11998878  0.06556288  1
  H  H56  1  0.41732889  0.13700479  0.07826589  1
  H  H57  1  0.43996683  0.17924684  0.91329069  1
  H  H58  1  0.41751791  0.17235758  0.94973270  1
  H  H59  1  0.41688011  0.14941849  0.92566421  1
  H  H60  1  0.39753373  0.12980803  0.97727106  1
  H  H61  1  0.39837223  0.12497306  0.02839209  1
  H  H62  1  0.36133435  0.10785245  0.00483579  1
  H  H63  1  0.31730890  0.09193028  0.00195341  1
  H  H64  1  0.33508194  0.16194644  0.02408086  1
  H  H65  1  0.37990076  0.17831159  0.02456176  1
  H  H66  1  0.29299543  0.12891447  0.02774044  1
  H  H67  1  0.27887160  0.07954323  1.00253700  1
  H  H68  1  0.47416422  0.20518290  0.92141079  1
  H  H69  1  0.50347250  0.21362023  0.93853586  1
  H  H70  1  0.50266188  0.23058010  0.87963515  1
  H  H71  1  0.52948515  0.25288787  0.82334026  1
  H  H72  1  0.52495549  0.19048250  0.78675792  1
  H  H73  1  0.49818062  0.16843778  0.84335056  1
  H  H74  1  0.55361784  0.25695738  0.76735011  1
  H  H75  1  0.54572416  0.21058716  0.73820706  1
  H  H76  1  0.63987346  0.49559128  0.75279211  1
  H  H77  1  0.68724908  0.50229554  0.78464928  1
  H  H78  1  0.71176432  0.52546579  0.82979543  1
  H  H79  1  0.72242105  0.55106448  0.88658595  1
  H  H80  1  0.65985615  0.55415231  0.86214093  1
  H  H81  1  0.64887869  0.52810797  0.80444903  1
  H  H82  1  0.73293817  0.57973997  0.92112211  1
  H  H83  1  0.71089473  0.55222793  0.94469775  1
  H  H84  1  0.67610657  0.53530346  0.03200830  1
  H  H85  1  0.70146530  0.53914801  0.00678448  1
  H  H86  1  0.67623861  0.53524227  0.98004411  1
  H  H87  1  0.73837266  0.61012480  0.90665798  1
  H  H88  1  0.76386756  0.62733385  0.93874655  1
  H  H89  1  0.74485325  0.63684126  0.92500333  1
  H  H90  1  0.69874449  0.61189113  0.08882009  1
  H  H91  1  0.70444614  0.63320927  0.05234439  1
  H  H92  1  0.72939612  0.63540355  0.07688800  1
  H  H93  1  0.74885105  0.65549032  0.02420816  1
  H  H94  1  0.75351158  0.65447600  0.97301285  1
  H  H95  1  0.76929585  0.68800083  0.99250632  1
  H  H96  1  0.78503486  0.72947255  0.99207463  1
  H  H97  1  0.71016515  0.71083557  0.98167166  1
  H  H98  1  0.69455495  0.66837715  0.97697175  1
  H  H99  1  0.74705423  0.75451181  0.99195837  1
  H  H100  1  0.79408995  0.75729165  0.01671911  1
  H  H101  1  0.67226266  0.57839997  0.07841130  1
  H  H102  1  0.66754129  0.55137345  0.06476450  1
  H  H103  1  0.64997555  0.55209574  0.12087501  1
  H  H104  1  0.62851741  0.52372376  0.17570575  1
  H  H105  1  0.69686520  0.53194536  0.20712856  1
  H  H106  1  0.71888761  0.56245802  0.15451304  1
  H  H107  1  0.62823088  0.49832091  0.22778809  1
  H  H108  1  0.68001960  0.51894628  0.26270373  1
  H  H109  1  0.71835107  0.39838582  0.57102213  1
  H  H110  1  0.71297247  0.39236354  0.42242443  1
  H  H111  1  0.72646282  0.35918292  0.50286977  1
  H  H112  1  0.68187885  0.40970423  0.49575527  1
  H  H113  1  0.83270928  0.36844803  0.68866210  1
  H  H114  1  0.78612593  0.35499655  0.73564076  1
  H  H115  1  0.80261545  0.37698227  0.65453974  1
  H  H116  1  0.78300009  0.34581490  0.65203099  1
  H  H117  1  0.73007142  0.36879209  0.67476601  1
  H  H118  1  0.75906006  0.36262076  0.61091757  1
  H  H119  1  0.75066472  0.34511388  0.69247790  1
  H  H120  1  0.76998299  0.37623179  0.69609238  1
  H  H121  1  0.54707286  0.24200610  0.31164628  1
  H  H122  1  0.60097094  0.25821683  0.30314030  1
  H  H123  1  0.59584851  0.29478165  0.31927193  1
  H  H124  1  0.57657092  0.27500379  0.35688137  1
  H  H125  1  0.66073194  0.31967333  0.39407087  1
  H  H126  1  0.61321638  0.31853300  0.39044979  1
  H  H127  1  0.61182931  0.27603154  0.38629822  1
  H  H128  1  0.63115791  0.29264832  0.34630526  1
  H  H129  1  0.58459140  0.23580188  0.70462115  1
  H  H130  1  0.56912309  0.27009171  0.69158357  1
  H  H131  1  0.61914341  0.27991657  0.67856463  1
  H  H132  1  0.59941976  0.26163572  0.64051910  1
  H  H133  1  0.62684471  0.33786139  0.60038116  1
  H  H134  1  0.64309207  0.30419674  0.61284929  1
  H  H135  1  0.59168198  0.29178536  0.62006753  1
  H  H136  1  0.60889289  0.30986011  0.66010525  1
  H  H137  1  0.63090468  0.46857472  0.27128671  1
  H  H138  1  0.68552673  0.49139679  0.29581198  1
  H  H139  1  0.64186288  0.45239573  0.34097353  1
  H  H140  1  0.64616823  0.44010954  0.29959629  1
  H  H141  1  0.70681472  0.45056992  0.38581850  1
  H  H142  1  0.65178256  0.41869068  0.36019404  1
  H  H143  1  0.69190892  0.46119211  0.31831954  1
  H  H144  1  0.68651429  0.47177572  0.36090597  1
  H  H145  1  0.68610034  0.50363603  0.71454508  1
  H  H146  1  0.63356951  0.45899101  0.69759726  1
  H  H147  1  0.68102588  0.47944600  0.65609762  1
  H  H148  1  0.68349722  0.46704376  0.69963523  1
  H  H149  1  0.65520144  0.41443759  0.59640973  1
  H  H150  1  0.69515915  0.44816080  0.65664264  1
  H  H151  1  0.64537312  0.42641383  0.67907987  1
  H  H152  1  0.64522304  0.43918172  0.63393329  1
  H  H153  1  0.83687030  0.37744760  0.30059867  1
  H  H154  1  0.78737960  0.36410906  0.26660156  1
  H  H155  1  0.78794080  0.34889794  0.34817361  1
  H  H156  1  0.80255627  0.37980789  0.34857758  1
  H  H157  1  0.71494081  0.33950055  0.34157154  1
  H  H158  1  0.76035944  0.35890350  0.39576561  1
  H  H159  1  0.76603176  0.37515000  0.31545792  1
  H  H160  1  0.75158152  0.34447459  0.31012890  1
  H  H161  1  0.94974716  0.06408328  0.96989977  1
  H  H162  1  0.93949045  0.09289950  0.96674297  1
  H  H163  1  0.00771747  0.14406931  0.02710150  1
  H  H164  1  0.01816392  0.11552417  0.02991657  1
  H  H165  1  0.94851912  0.13113931  0.97736610  1
  H  H166  1  0.99677787  0.16774043  0.02246534  1
  H  H167  1  0.00481446  0.20611165  0.03391749  1
  H  H168  1  0.99347772  0.23416922  0.02981030  1
  H  H169  1  0.92679987  0.18211657  0.96715601  1
  H  H170  1  0.93853953  0.15452749  0.96939354  1
  H  H171  1  0.07493484  0.01506756  -0.00016367  1
  H  H172  1  0.11482146  0.02085890  0.00216398  1
  H  H173  1  0.15212805  0.09705538  0.00262439  1
  H  H174  1  0.11219068  0.09160922  0.00164394  1
  H  H175  1  0.15765007  0.04393645  0.00355818  1
  H  H176  1  0.18531632  0.09865398  0.00357612  1
  H  H177  1  0.22836809  0.12184167  -0.00139306  1
  H  H178  1  0.26770341  0.12632027  -0.01142394  1
  H  H179  1  0.23025374  0.05058816  0.00338346  1
  H  H180  1  0.19043410  0.04534287  0.00194095  1
  H  H181  1  0.96199170  0.93818133  0.95978515  1
  H  H182  1  0.92652421  0.89656709  0.95426108  1
  H  H183  1  0.88562130  0.90890641  0.03726850  1
  H  H184  1  0.92026777  0.95058306  0.04049964  1
  H  H185  1  0.88516544  0.86439048  0.96972890  1
  H  H186  1  0.85633471  0.87405832  0.02894858  1
  H  H187  1  0.81495425  0.84126200  0.04483298  1
  H  H188  1  0.78041269  0.79925666  0.04058575  1
  H  H189  1  0.82199792  0.78853148  0.95692449  1
  H  H190  1  0.85500520  0.83087986  0.95689794  1
  C  C191  1  0.98880983  0.03660494  -0.00092764  1
  C  C192  1  0.98084428  0.01253619  -0.00141499  1
  C  C193  1  -0.00077579  0.00761977  -0.00274282  1
  C  C194  1  0.02469285  0.02645321  -0.00156129  1
  C  C195  1  0.03323282  0.05103439  0.00017563  1
  C  C196  1  0.01496277  0.05598705  0.00040311  1
  C  C197  1  0.97543038  0.04669544  -0.00258853  1
  C  C198  1  0.01610279  0.07700028  0.00174844  1
  C  C199  1  0.05940073  0.06440017  0.00100336  1
  C  C200  1  0.04518602  0.02548885  -0.00113737  1
  C  C201  1  0.98704556  0.98297052  -0.00505301  1
  C  C202  1  0.95775278  0.99042563  0.00005553  1
  C  C203  1  0.82845132  0.35842604  0.74990330  1
  C  C204  1  0.81266005  0.34156341  0.77747463  1
  C  C205  1  0.82056897  0.33525310  0.81214360  1
  C  C206  1  0.80308302  0.31555368  0.83604786  1
  C  C207  1  0.81029447  0.30861565  0.86868244  1
  C  C208  1  0.83541259  0.32155550  0.87899710  1
  C  C209  1  0.85316854  0.34116422  0.85628136  1
  C  C210  1  0.84590512  0.34811427  0.82368565  1
  C  C211  1  0.82583954  0.29717647  0.93728575  1
  C  C212  1  0.84017787  0.29708817  0.97177879  1
  C  C213  1  0.85162043  0.28496419  0.96865303  1
  C  C214  1  0.86641292  0.28617451  1.00009612  1
  C  C215  1  0.87039785  0.29995715  0.03368111  1
  C  C216  1  0.85995913  0.31306088  0.03518175  1
  C  C217  1  0.84422179  0.31126145  0.00479245  1
  C  C218  1  0.83179142  0.32400772  0.00529561  1
  C  C219  1  0.84675708  0.26982439  0.93352489  1
  C  C220  1  0.88614619  0.30012725  0.06602037  1
  C  C221  1  0.87780398  0.27247790  0.99863415  1
  C  C222  1  0.91697597  0.27798415  0.99038334  1
  C  C223  1  0.90491976  0.25350512  0.99522699  1
  C  C224  1  0.91849934  0.24379588  0.99669526  1
  C  C225  1  0.94471456  0.25805965  0.99310522  1
  C  C226  1  0.95631810  0.28275857  0.98641005  1
  C  C227  1  0.94273972  0.29253179  0.98485494  1
  C  C228  1  0.95878575  0.24770339  0.99570192  1
  C  C229  1  0.94764706  0.22381821  0.99979104  1
  C  C230  1  0.86536601  0.32872781  0.06987596  1
  C  C231  1  0.84750409  0.32686678  0.13213314  1
  C  C232  1  0.86611733  0.35103259  0.13755371  1
  C  C233  1  0.86443137  0.36293064  0.16857553  1
  C  C234  1  0.84433476  0.35120528  0.19536184  1
  C  C235  1  0.82649125  0.32634803  0.19043018  1
  C  C236  1  0.82806730  0.31440898  0.15924284  1
  C  C237  1  0.84266097  0.36413429  0.22680749  1
  C  C238  1  0.82150028  0.35568423  0.24842174  1
  C  C239  1  0.55753201  0.23894072  0.25319112  1
  C  C240  1  0.55030729  0.21810349  0.23518256  1
  C  C241  1  0.53547245  0.20961998  0.19936234  1
  C  C242  1  0.53144870  0.19018716  0.17758977  1
  C  C243  1  0.51680558  0.18189452  0.14378980  1
  C  C244  1  0.50572005  0.19299381  0.12986647  1
  C  C245  1  0.50866298  0.21166787  0.15146676  1
  C  C246  1  0.52290448  0.21957632  0.18566283  1
  C  C247  1  0.48878370  0.16946149  0.06900109  1
  C  C248  1  0.47394103  0.16839933  0.03379190  1
  C  C249  1  0.44770405  0.15407564  0.03608819  1
  C  C250  1  0.43391544  0.15361165  0.00366127  1
  C  C251  1  0.44582337  0.16787364  0.96970094  1
  C  C252  1  0.47203888  0.18205216  0.96745928  1
  C  C253  1  0.48610686  0.18193165  0.99914241  1
  C  C254  1  0.51390067  0.19577164  0.99768845  1
  C  C255  1  0.43430172  0.13827037  0.07111101  1
  C  C256  1  0.42946105  0.16733834  0.93803319  1
  C  C257  1  0.40602963  0.13881461  0.00534326  1
  C  C258  1  0.37346801  0.14430210  0.01386252  1
  C  C259  1  0.35582135  0.11996546  0.00814348  1
  C  C260  1  0.33074606  0.11083977  0.00739149  1
  C  C261  1  0.32253695  0.12555785  0.01403928  1
  C  C262  1  0.34089715  0.15012479  0.02000263  1
  C  C263  1  0.36598074  0.15939214  0.01990193  1
  C  C264  1  0.29657395  0.11659429  0.01534651  1
  C  C265  1  0.27690132  0.09414602  0.00592796  1
  C  C266  1  0.48463316  0.19811189  0.93185386  1
  C  C267  1  0.50017568  0.19841617  0.86712939  1
  C  C268  1  0.50823469  0.22193349  0.86018626  1
  C  C269  1  0.52305728  0.23443752  0.82767006  1
  C  C270  1  0.53023121  0.22412373  0.80016752  1
  C  C271  1  0.52054277  0.19977759  0.80686511  1
  C  C272  1  0.50553399  0.18716456  0.83926309  1
  C  C273  1  0.54684313  0.23826351  0.76765612  1
  C  C274  1  0.55424923  0.22970299  0.73883643  1
  C  C275  1  0.65770111  0.49790313  0.75228884  1
  C  C276  1  0.67382256  0.50682771  0.78362687  1
  C  C277  1  0.67857537  0.52328225  0.81427485  1
  C  C278  1  0.69991709  0.53116463  0.83742362  1
  C  C279  1  0.70595160  0.54563657  0.86942753  1
  C  C280  1  0.69090503  0.55314926  0.87888006  1
  C  C281  1  0.67076534  0.54731260  0.85496640  1
  C  C282  1  0.66459791  0.53254184  0.82283713  1
  C  C283  1  0.71516028  0.56982288  0.93710550  1
  C  C284  1  0.71569660  0.58314166  0.97189569  1
  C  C285  1  0.72838002  0.60801025  0.96821088  1
  C  C286  1  0.72653314  0.62031647  0.99920555  1
  C  C287  1  0.71171444  0.60802620  0.03262040  1
  C  C288  1  0.69820409  0.58300050  0.03451107  1
  C  C289  1  0.70074349  0.57031229  0.00494987  1
  C  C290  1  0.68799581  0.54382582  0.00617547  1
  C  C291  1  0.74449933  0.62113576  0.93303772  1
  C  C292  1  0.71085213  0.62261898  0.06422253  1
  C  C293  1  0.73948294  0.64665601  0.99643391  1
  C  C294  1  0.73062394  0.67536203  0.98703618  1
  C  C295  1  0.75606410  0.69269819  0.99096634  1
  C  C296  1  0.76496192  0.71647786  0.99215082  1
  C  C297  1  0.74866420  0.72363511  0.99142805  1
  C  C298  1  0.72306735  0.70579703  0.98478757  1
  C  C299  1  0.71420626  0.68197848  0.98223542  1
  C  C300  1  0.75918800  0.74861956  0.99604964  1
  C  C301  1  0.78370711  0.76407699  1.00491104  1
  C  C302  1  0.68194708  0.57035500  0.06955871  1
  C  C303  1  0.68544885  0.55773559  0.13306049  1
  C  C304  1  0.66018376  0.54747875  0.13948962  1
  C  C305  1  0.64818736  0.53177720  0.17065084  1
  C  C306  1  0.66099228  0.52581220  0.19608736  1
  C  C307  1  0.68674156  0.53696689  0.18929100  1
  C  C308  1  0.69901214  0.55350914  0.15911524  1
  C  C309  1  0.64845507  0.50845174  0.22704192  1
  C  C310  1  0.66102199  0.50441709  0.25467362  1
  C  C311  1  0.71473553  0.36088055  0.61621136  1
  C  C312  1  0.68576845  0.41164007  0.39195438  1
  C  C313  1  0.68867970  0.41528994  0.60265551  1
  C  C314  1  0.71831018  0.36045769  0.39240152  1
  C  C315  1  0.65788816  0.34556483  0.56667579  1
  C  C316  1  0.65969909  0.34268617  0.43423585  1
  C  C317  1  0.82002869  0.36220251  0.71374358  1
  C  C318  1  0.79749326  0.35893453  0.70942813  1
  C  C319  1  0.78792986  0.36098336  0.67090931  1
  C  C320  1  0.73370017  0.36493159  0.64550075  1
  C  C321  1  0.75303833  0.36333397  0.64033908  1
  C  C322  1  0.76510395  0.36145262  0.67625836  1
  C  C323  1  0.56302697  0.24539939  0.29462003  1
  C  C324  1  0.58602241  0.25991903  0.31152323  1
  C  C325  1  0.59260378  0.27998816  0.33830943  1
  C  C326  1  0.64821632  0.32467562  0.40227280  1
  C  C327  1  0.62527679  0.31262712  0.38612457  1
  C  C328  1  0.61575997  0.28987502  0.36431821  1
  C  C329  1  0.57422146  0.24342332  0.71095106  1
  C  C330  1  0.58060024  0.26334086  0.68974391  1
  C  C331  1  0.60230727  0.27503953  0.66197588  1
  C  C332  1  0.63730968  0.33025647  0.59479093  1
  C  C333  1  0.63096807  0.31020866  0.61419824  1
  C  C334  1  0.60779003  0.29706279  0.63911661  1
  C  C335  1  0.65084676  0.48239917  0.27474645  1
  C  C336  1  0.66543164  0.47794900  0.29649892  1
  C  C337  1  0.65599249  0.45570419  0.31924386  1
  C  C338  1  0.68865116  0.43411795  0.37932559  1
  C  C339  1  0.67077655  0.43469630  0.36114543  1
  C  C340  1  0.67730144  0.45671594  0.34013774  1
  C  C341  1  0.66586422  0.49171350  0.71888855  1
  C  C342  1  0.65382694  0.47068264  0.69884385  1
  C  C343  1  0.66969955  0.46504722  0.67807393  1
  C  C344  1  0.67179499  0.42209583  0.61473784  1
  C  C345  1  0.67669040  0.43760878  0.64329657  1
  C  C346  1  0.65753624  0.44098749  0.65796581  1
  C  C347  1  0.82027900  0.36717427  0.28204076  1
  C  C348  1  0.79895846  0.36542799  0.29116210  1
  C  C349  1  0.78942224  0.36364196  0.33157419  1
  C  C350  1  0.72709136  0.34914708  0.36666772  1
  C  C351  1  0.75047698  0.35495841  0.36785261  1
  C  C352  1  0.76394023  0.35948548  0.32995324  1
  C  C353  1  0.96263745  0.08156015  0.98266754  1
  C  C354  1  0.95684813  0.09806593  0.98072103  1
  C  C355  1  0.97277785  0.12134527  0.99575172  1
  C  C356  1  0.99500226  0.12682749  0.01351036  1
  C  C357  1  1.00124099  0.11062516  0.01471188  1
  C  C358  1  0.98535320  0.08779844  0.99882103  1
  C  C359  1  0.96601976  0.13814716  0.99263277  1
  C  C360  1  0.97947142  0.16083910  0.00666610  1
  C  C361  1  0.97253194  0.17745214  0.00310250  1
  C  C362  1  0.98764316  0.20073410  0.01899225  1
  C  C363  1  0.98118266  0.21668306  0.01667283  1
  C  C364  1  0.95857370  0.21027583  -0.00098181  1
  C  C365  1  0.94388899  0.18737886  0.98225954  1
  C  C366  1  0.95061615  0.17168621  0.98359930  1
  C  C367  1  0.09151719  0.03323280  0.00086101  1
  C  C368  1  0.11429600  0.03642782  0.00195238  1
  C  C369  1  0.13686425  0.05918476  0.00254520  1
  C  C370  1  0.13531407  0.07898337  0.00232600  1
  C  C371  1  0.11256651  0.07596723  0.00173698  1
  C  C372  1  0.09030166  0.05297117  0.00100444  1
  C  C373  1  0.15991281  0.06094627  0.00306752  1
  C  C374  1  0.18306698  0.08166775  0.00271177  1
  C  C375  1  0.20602223  0.08340032  0.00135588  1
  C  C376  1  0.22875981  0.10620075  -0.00108981  1
  C  C377  1  0.25116112  0.10896807  -0.00339186  1
  C  C378  1  0.25262909  0.08930620  0.00187039  1
  C  C379  1  0.22990209  0.06626033  0.00215911  1
  C  C380  1  0.20735015  0.06336602  0.00157961  1
  C  C381  1  0.94512300  0.93189660  0.97631239  1
  C  C382  1  0.92508289  0.90833607  0.97334705  1
  C  C383  1  0.90261519  0.89924714  0.99389294  1
  C  C384  1  0.90171007  0.91514829  0.01867347  1
  C  C385  1  0.92120579  0.93899601  0.02018151  1
  C  C386  1  0.94266849  0.94773256  0.99789506  1
  C  C387  1  0.88183551  0.87460922  0.98957852  1
  C  C388  1  0.85947496  0.86408990  0.00818623  1
  C  C389  1  0.83879740  0.83950206  0.00355735  1
  C  C390  1  0.81650241  0.82971699  0.02532786  1
  C  C391  1  0.79712075  0.80595566  0.02323977  1
  C  C392  1  0.79950991  0.79010790  0.00102038  1
  C  C393  1  0.82068422  0.80013727  0.97670134  1
  C  C394  1  0.83944367  0.82407240  0.97701447  1
  N  N395  1  0.99203567  0.07126002  -0.00059903  1
  N  N396  1  0.06633518  0.04858156  0.00033515  1
  N  N397  1  0.96181700  0.97268381  -0.00246047  1
  O  O398  1  0.84395173  0.31575258  0.91028781  1
  O  O399  1  0.84787379  0.31459612  0.10141932  1
  O  O400  1  0.90446146  0.28833022  0.99075611  1
  O  O401  1  0.49102439  0.18647468  0.09725442  1
  O  O402  1  0.48655808  0.18551250  0.89935917  1
  O  O403  1  0.39831609  0.15446288  0.01359513  1
  O  O404  1  0.69564586  0.56655431  0.91108675  1
  O  O405  1  0.69768006  0.57230986  0.10175608  1
  O  O406  1  0.72130614  0.65184927  0.98756819  1
  O  O407  1  0.65882966  0.36372442  0.55466692  1
  O  O408  1  0.71930970  0.35884713  0.58000763  1
  O  O409  1  0.69620610  0.35979278  0.62795967  1
  O  O410  1  0.67896400  0.40571526  0.42793429  1
  O  O411  1  0.69026247  0.40126484  0.36767261  1
  O  O412  1  0.67407640  0.34080985  0.45688177  1
  O  O413  1  0.67239456  0.34016517  0.55508312  1
  O  O414  1  0.68688326  0.41085492  0.56561006  1
  O  O415  1  0.70261967  0.41510195  0.62720006  1
  O  O416  1  0.72093632  0.35918490  0.42973316  1
  O  O417  1  0.70965775  0.37040420  0.37551959  1
  O  O418  1  0.65570163  0.35861943  0.43797129  1
  O  O419  1  0.70756154  0.38784125  0.55019873  1
  O  O420  1  0.70597952  0.38726714  0.44884647  1
  O  O421  1  0.71241115  0.36025918  0.50362142  1
  O  O422  1  0.67979538  0.39452475  0.49735401  1
