# generated using pymatgen
data_Zn3H190(C117O14)2
_symmetry_space_group_name_H-M   'P 1'
_cell_length_a   55.73678423
_cell_length_b   44.69602891
_cell_length_c   30.27305658
_cell_angle_alpha   80.22118235
_cell_angle_beta   96.88982893
_cell_angle_gamma   90.48077794
_symmetry_Int_Tables_number   1
_chemical_formula_structural   Zn3H190(C117O14)2
_chemical_formula_sum   'Zn3 H190 C234 O28'
_cell_volume   73778.65104560
_cell_formula_units_Z   1
loop_
 _symmetry_equiv_pos_site_id
 _symmetry_equiv_pos_as_xyz
  1  'x, y, z'
loop_
 _atom_site_type_symbol
 _atom_site_label
 _atom_site_symmetry_multiplicity
 _atom_site_fract_x
 _atom_site_fract_y
 _atom_site_fract_z
 _atom_site_occupancy
  Zn  Zn0  1  0.48911939  0.55721557  0.65443952  1
  Zn  Zn1  1  0.51558867  0.45372774  0.55603864  1
  Zn  Zn2  1  0.49741271  0.51997599  0.58050596  1
  H  H3  1  0.98938088  0.05883680  0.08028752  1
  H  H4  1  0.02209212  0.95591751  0.09339233  1
  H  H5  1  0.31839927  0.45725062  0.33323565  1
  H  H6  1  0.35591797  0.40652189  0.33151393  1
  H  H7  1  0.34944141  0.37351286  0.27962098  1
  H  H8  1  0.32584787  0.35480309  0.21628558  1
  H  H9  1  0.27102723  0.42323670  0.21211630  1
  H  H10  1  0.29452307  0.44196633  0.27641845  1
  H  H11  1  0.29695350  0.33576949  0.17570396  1
  H  H12  1  0.31276096  0.36498938  0.14444443  1
  H  H13  1  0.30303990  0.40890350  0.03545934  1
  H  H14  1  0.31972259  0.38047934  0.07398905  1
  H  H15  1  0.30343939  0.40812552  0.09417259  1
  H  H16  1  0.26472467  0.32100521  0.18615348  1
  H  H17  1  0.26494916  0.29018699  0.15641957  1
  H  H18  1  0.23735527  0.30776008  0.16187639  1
  H  H19  1  0.22946488  0.36479424  0.96252151  1
  H  H20  1  0.20806315  0.35178284  0.00036597  1
  H  H21  1  0.22740513  0.32578955  0.98373254  1
  H  H22  1  0.21963800  0.29853837  0.04663593  1
  H  H23  1  0.22428240  0.29302432  0.10656996  1
  H  H24  1  0.19660993  0.26605922  0.08251090  1
  H  H25  1  0.15901656  0.23776190  0.08279123  1
  H  H26  1  0.11813379  0.32091643  0.07190254  1
  H  H27  1  0.15652139  0.34936084  0.07582851  1
  H  H28  1  0.09723989  0.26590464  0.07782693  1
  H  H29  1  0.12848636  0.23269938  0.02496559  1
  H  H30  1  0.24739427  0.40279419  0.97070481  1
  H  H31  1  0.27609408  0.41485138  0.99196736  1
  H  H32  1  0.26431343  0.43675523  0.92052026  1
  H  H33  1  0.28312138  0.46703725  0.85850513  1
  H  H34  1  0.32617508  0.38882315  0.84851233  1
  H  H35  1  0.30577295  0.35806380  0.90879201  1
  H  H36  1  0.31616468  0.47283899  0.80798317  1
  H  H37  1  0.33001575  0.41140318  0.78371619  1
  H  H38  1  0.57878148  0.22006565  0.75978050  1
  H  H39  1  0.53040411  0.19620562  0.78928473  1
  H  H40  1  0.53670661  0.14424205  0.84213902  1
  H  H41  1  0.55986784  0.11463267  0.90926654  1
  H  H42  1  0.61918859  0.17679183  0.89484846  1
  H  H43  1  0.59507697  0.20838609  0.82961936  1
  H  H44  1  0.58904213  0.08808373  0.96541766  1
  H  H45  1  0.57647774  0.11902319  0.98478487  1
  H  H46  1  0.59046343  0.15409453  0.08054409  1
  H  H47  1  0.57241028  0.12842012  0.05353834  1
  H  H48  1  0.58746273  0.15772189  0.02098781  1
  H  H49  1  0.62203663  0.07472956  0.95338358  1
  H  H50  1  0.62489803  0.04116093  0.99455656  1
  H  H51  1  0.65086534  0.06117518  0.97842245  1
  H  H52  1  0.66812984  0.10659511  0.15663496  1
  H  H53  1  0.68689180  0.09621842  0.11806371  1
  H  H54  1  0.67062604  0.06835949  0.15049032  1
  H  H55  1  0.67379782  0.04264889  0.09818115  1
  H  H56  1  0.66452463  0.03817184  0.04161773  1
  H  H57  1  0.69897082  0.01107365  0.06697782  1
  H  H58  1  0.73906178  0.98828416  0.06974593  1
  H  H59  1  0.76908927  0.07770204  0.03850818  1
  H  H60  1  0.72845932  0.10060699  0.03484770  1
  H  H61  1  0.79221927  0.03905021  0.03281985  1
  H  H62  1  0.78581247  0.97308664  0.07812765  1
  H  H63  1  0.64932194  0.14416111  0.13751834  1
  H  H64  1  0.62033876  0.15898037  0.11492808  1
  H  H65  1  0.63626283  0.17675724  0.17642982  1
  H  H66  1  0.62270094  0.20548251  0.23176188  1
  H  H67  1  0.58131256  0.12842341  0.28515107  1
  H  H68  1  0.59451171  0.10001657  0.22875725  1
  H  H69  1  0.59973778  0.21097479  0.29161537  1
  H  H70  1  0.56808125  0.15754905  0.33168399  1
  H  H71  1  0.41941206  0.80318022  0.88903813  1
  H  H72  1  0.45828543  0.85324292  0.89884062  1
  H  H73  1  0.45721048  0.88567319  0.95343861  1
  H  H74  1  0.43881661  0.90444031  0.01368370  1
  H  H75  1  0.38103343  0.84031072  0.00224013  1
  H  H76  1  0.39919720  0.82180678  0.94101646  1
  H  H77  1  0.41255638  0.92457027  0.05122130  1
  H  H78  1  0.42935211  0.89336713  0.08428187  1
  H  H79  1  0.42292011  0.84486412  0.18791191  1
  H  H80  1  0.43921376  0.87315443  0.15668811  1
  H  H81  1  0.42028276  0.84859728  0.12839481  1
  H  H82  1  0.37924565  0.94028035  0.03240842  1
  H  H83  1  0.38069180  0.97045785  0.06378667  1
  H  H84  1  0.35293411  0.95248177  0.05101869  1
  H  H85  1  0.35342882  0.88894675  0.24427520  1
  H  H86  1  0.33069622  0.90281222  0.19936326  1
  H  H87  1  0.34949175  0.92826062  0.22575620  1
  H  H88  1  0.34162444  0.95970855  0.16474240  1
  H  H89  1  0.34519543  0.96935658  0.10658327  1
  H  H90  1  0.31277910  0.99368752  0.12600632  1
  H  H91  1  0.27237067  0.01578450  0.12311368  1
  H  H92  1  0.24072150  0.92859501  0.10973335  1
  H  H93  1  0.28156745  0.90638780  0.11340553  1
  H  H94  1  0.21599467  0.96597867  0.10223298  1
  H  H95  1  0.22708072  0.03109813  0.11886463  1
  H  H96  1  0.37052702  0.85276905  0.23794572  1
  H  H97  1  0.39780774  0.83924954  0.22407115  1
  H  H98  1  0.38382191  0.81702918  0.28707669  1
  H  H99  1  0.40134981  0.77885028  0.35068794  1
  H  H100  1  0.45113205  0.84547158  0.39519158  1
  H  H101  1  0.43389928  0.88348321  0.32985521  1
  H  H102  1  0.42645438  0.76377464  0.41476275  1
  H  H103  1  0.46914414  0.80219008  0.44898407  1
  H  H104  1  0.66847396  0.61180846  0.82426704  1
  H  H105  1  0.68519673  0.54613228  0.86639628  1
  H  H106  1  0.71724279  0.54185134  0.93021920  1
  H  H107  1  0.73897109  0.56238844  0.99382305  1
  H  H108  1  0.70296307  0.64899463  0.94590861  1
  H  H109  1  0.67972188  0.62802145  0.88370854  1
  H  H110  1  0.76254543  0.59133783  0.03664323  1
  H  H111  1  0.73492245  0.58093844  0.05838313  1
  H  H112  1  0.70401198  0.60376353  0.14257777  1
  H  H113  1  0.72145180  0.57633683  0.12493592  1
  H  H114  1  0.70418865  0.60336932  0.08423187  1
  H  H115  1  0.77915043  0.63025059  0.01260873  1
  H  H116  1  0.80390934  0.62281258  0.05562748  1
  H  H117  1  0.79600583  0.66055318  0.02954199  1
  H  H118  1  0.75650959  0.68274970  0.20057337  1
  H  H119  1  0.76978428  0.70639383  0.15691904  1
  H  H120  1  0.78705705  0.67762944  0.19409669  1
  H  H121  1  0.80871317  0.68048407  0.13956792  1
  H  H122  1  0.81062053  0.67424450  0.08359209  1
  H  H123  1  0.83743536  0.70083767  0.10696987  1
  H  H124  1  0.86757438  0.73916777  0.11403952  1
  H  H125  1  0.81315202  0.80970586  0.06506805  1
  H  H126  1  0.78179056  0.76997359  0.06403008  1
  H  H127  1  0.85659649  0.82400939  0.08378862  1
  H  H128  1  0.89120063  0.76799473  0.10231719  1
  H  H129  1  0.72399830  0.66943034  0.18522218  1
  H  H130  1  0.70617494  0.63906014  0.17007998  1
  H  H131  1  0.69542858  0.66128953  0.22606589  1
  H  H132  1  0.66673421  0.64960289  0.28205787  1
  H  H133  1  0.71172534  0.57340947  0.35112819  1
  H  H134  1  0.74036814  0.58533692  0.29435246  1
  H  H135  1  0.65235148  0.61792663  0.34417350  1
  H  H136  1  0.68459688  0.56419160  0.39715515  1
  H  H137  1  0.05215502  0.05607023  0.06561691  1
  H  H138  1  0.11655731  0.18548041  0.04950249  1
  H  H139  1  0.07133939  0.20344720  0.03565801  1
  H  H140  1  0.08710408  0.15022321  0.04800590  1
  H  H141  1  0.04173034  0.15450501  0.04426779  1
  H  H142  1  0.06452114  0.10492781  0.05379904  1
  H  H143  1  0.01988493  0.09744926  0.05039431  1
  H  H144  1  0.05083577  0.05373041  0.12440276  1
  H  H145  1  0.11739204  0.19379088  0.10425375  1
  H  H146  1  0.07350511  0.20257506  0.09465552  1
  H  H147  1  0.08985890  0.14863872  0.10690687  1
  H  H148  1  0.04463856  0.15192701  0.10372299  1
  H  H149  1  0.06707510  0.10235225  0.11290273  1
  H  H150  1  0.02147333  0.09633011  0.10964863  1
  H  H151  1  0.95049255  0.03951341  0.05988283  1
  H  H152  1  0.82539309  0.02229479  0.07692711  1
  H  H153  1  0.83734890  0.97012424  0.04967416  1
  H  H154  1  0.86141898  0.01590684  0.05266321  1
  H  H155  1  0.89012501  0.97230684  0.05517950  1
  H  H156  1  0.90462655  0.02622184  0.05500703  1
  H  H157  1  0.93582465  0.98706577  0.05736137  1
  H  H158  1  0.95289149  0.03275429  0.11906837  1
  H  H159  1  0.82100121  0.99829278  0.12720256  1
  H  H160  1  0.84351090  0.95769025  0.10856201  1
  H  H161  1  0.86454752  0.00975783  0.11219129  1
  H  H162  1  0.89284988  0.96603679  0.11487174  1
  H  H163  1  0.90713724  0.02012728  0.11451746  1
  H  H164  1  0.93815255  0.97966944  0.11799956  1
  H  H165  1  0.06033533  0.97766489  0.07444382  1
  H  H166  1  0.18537765  -0.01519218  0.12161651  1
  H  H167  1  0.17405857  0.04238128  0.08064934  1
  H  H168  1  0.14886342  0.99709046  0.08732767  1
  H  H169  1  0.12143301  0.04301662  0.07351207  1
  H  H170  1  0.10623771  0.98859590  0.08115677  1
  H  H171  1  0.07623579  0.03061613  0.06444659  1
  H  H172  1  0.06152983  0.97644928  0.13285188  1
  H  H173  1  0.19375921  0.00106148  0.16958679  1
  H  H174  1  0.17169725  0.04710220  0.13684174  1
  H  H175  1  0.14930102  0.99538136  0.14605224  1
  H  H176  1  0.12203148  0.04099352  0.13250208  1
  H  H177  1  0.10621490  0.98758071  0.13963574  1
  H  H178  1  0.07663696  0.03080938  0.12325853  1
  H  H179  1  0.97162473  0.95381493  0.14928011  1
  H  H180  1  0.90688314  0.81052739  0.15337842  1
  H  H181  1  0.88990447  0.85693583  0.10152423  1
  H  H182  1  0.93113591  0.85773538  0.14459362  1
  H  H183  1  0.91658437  0.90609531  0.09376295  1
  H  H184  1  0.95735742  0.90067366  0.14106030  1
  H  H185  1  0.94162734  0.94914943  0.08583017  1
  H  H186  1  0.99361944  0.93508285  0.12723065  1
  H  H187  1  0.92311175  0.80090406  0.11155588  1
  H  H188  1  0.90275642  0.84617291  0.05589384  1
  H  H189  1  0.94413499  0.84619854  0.09980518  1
  H  H190  1  0.92967540  0.89469545  0.04886383  1
  H  H191  1  0.97064358  0.89112141  0.09523923  1
  H  H192  1  0.96317744  0.94184874  0.05124859  1
  C  C193  1  0.98069124  0.01137112  0.09147425  1
  C  C194  1  0.99067812  0.98170053  0.09923448  1
  C  C195  1  0.01519325  0.97864623  0.09406578  1
  C  C196  1  0.03164160  1.00242161  0.09388015  1
  C  C197  1  0.02214429  0.03219867  0.08988495  1
  C  C198  1  0.99684067  0.03578247  0.08613772  1
  C  C199  1  0.53338096  0.53664322  0.66444541  1
  C  C200  1  0.47173110  0.47673864  0.52187467  1
  C  C201  1  0.46360513  0.50937027  0.65833577  1
  C  C202  1  0.48280141  0.58525990  0.56733683  1
  C  C203  1  0.48160090  0.58525680  0.73894218  1
  C  C204  1  0.52413591  0.41173627  0.61631561  1
  C  C205  1  0.54714157  0.41316213  0.49273878  1
  C  C206  1  0.53886160  0.50754188  0.52751095  1
  C  C207  1  0.33521743  0.44396405  0.34075597  1
  C  C208  1  0.33919299  0.41941151  0.31931757  1
  C  C209  1  0.32425523  0.40948672  0.28282169  1
  C  C210  1  0.33231007  0.38457569  0.26474669  1
  C  C211  1  0.31914556  0.37427375  0.22870043  1
  C  C212  1  0.29731055  0.38869265  0.20922840  1
  C  C213  1  0.28835666  0.41269332  0.22705333  1
  C  C214  1  0.30162181  0.42309864  0.26316068  1
  C  C215  1  0.29459768  0.35728549  0.15167086  1
  C  C216  1  0.27804885  0.35408325  0.10979264  1
  C  C217  1  0.25862292  0.33364616  0.11309159  1
  C  C218  1  0.24234694  0.33223953  0.07400692  1
  C  C219  1  0.24479802  0.35166832  0.03269325  1
  C  C220  1  0.26366856  0.37301642  0.03070201  1
  C  C221  1  0.28103554  0.37350041  0.06864523  1
  C  C222  1  0.30270243  0.39377456  0.06782412  1
  C  C223  1  0.25625231  0.31230160  0.15636910  1
  C  C224  1  0.22664721  0.34860997  0.99284925  1
  C  C225  1  0.22172315  0.31040556  0.07598335  1
  C  C226  1  0.17886387  0.30992751  0.07727056  1
  C  C227  1  0.17958286  0.27844701  0.07976694  1
  C  C228  1  0.15815342  0.26245253  0.07853669  1
  C  C229  1  0.13535038  0.27715137  0.07354833  1
  C  C230  1  0.13526629  0.30880723  0.07428733  1
  C  C231  1  0.15675715  0.32492353  0.07609692  1
  C  C232  1  0.11418547  0.25834501  0.06836767  1
  C  C233  1  0.11615640  0.23244173  0.05061099  1
  C  C234  1  0.26542673  0.39459682  0.98722451  1
  C  C235  1  0.28541939  0.39607210  0.92075685  1
  C  C236  1  0.27831178  0.42644360  0.90552838  1
  C  C237  1  0.28862929  0.44336175  0.87003736  1
  C  C238  1  0.30627725  0.43053190  0.84838704  1
  C  C239  1  0.31223342  0.39927503  0.86337630  1
  C  C240  1  0.30135087  0.38213046  0.89802727  1
  C  C241  1  0.31848045  0.44820923  0.81407639  1
  C  C242  1  0.33309042  0.43509039  0.78807710  1
  C  C243  1  0.56056815  0.22329071  0.76872981  1
  C  C244  1  0.54986437  0.19946704  0.79536781  1
  C  C245  1  0.56362101  0.17950914  0.83133549  1
  C  C246  1  0.55437452  0.15227241  0.85452764  1
  C  C247  1  0.56746573  0.13547778  0.89241463  1
  C  C248  1  0.59048391  0.14509934  0.90796357  1
  C  C249  1  0.60085905  0.17030509  0.88358018  1
  C  C250  1  0.58747190  0.18763625  0.84654619  1
  C  C251  1  0.59358369  0.10909042  0.97895746  1
  C  C252  1  0.61174515  0.10318737  0.02067231  1
  C  C253  1  0.63089248  0.08229096  0.02245901  1
  C  C254  1  0.64854310  0.07764086  0.06061171  1
  C  C255  1  0.64876324  0.09600941  0.09445370  1
  C  C256  1  0.63007626  0.11773941  0.09118245  1
  C  C257  1  0.61081222  0.12041736  0.05569532  1
  C  C258  1  0.58941320  0.14120373  0.05273267  1
  C  C259  1  0.63220417  0.06412839  0.98537117  1
  C  C260  1  0.66948253  0.09179750  0.13169315  1
  C  C261  1  0.66889382  0.05516162  0.06363440  1
  C  C262  1  0.71130443  0.05748621  0.05163368  1
  C  C263  1  0.71433494  0.02589035  0.06113305  1
  C  C264  1  0.73715824  0.01295045  0.06209562  1
  C  C265  1  0.75738599  0.03121209  0.05264144  1
  C  C266  1  0.75362395  0.06305133  0.04368603  1
  C  C267  1  0.73099848  0.07602842  0.04255315  1
  C  C268  1  0.78189845  0.02060662  0.05004184  1
  C  C269  1  0.79444889  0.99509561  0.07111543  1
  C  C270  1  0.63067762  0.13768856  0.12668059  1
  C  C271  1  0.61476723  0.13727831  0.19720144  1
  C  C272  1  0.62344983  0.16655119  0.19893436  1
  C  C273  1  0.61621995  0.18251126  0.23078810  1
  C  C274  1  0.60051984  0.16955437  0.26178826  1
  C  C275  1  0.59302784  0.13947745  0.26104552  1
  C  C276  1  0.60033792  0.12331785  0.22925736  1
  C  C277  1  0.59272058  0.18792013  0.29402810  1
  C  C278  1  0.57821399  0.17817843  0.32448525  1
  C  C279  1  0.43339675  0.82004070  0.88461828  1
  C  C280  1  0.44165297  0.84160882  0.90694740  1
  C  C281  1  0.42983876  0.85212544  0.94301353  1
  C  C282  1  0.44058165  0.87552698  0.96423792  1
  C  C283  1  0.43033124  0.88590238  -0.00139761  1
  C  C284  1  0.40905753  0.87278873  0.01260562  1
  C  C285  1  0.39780666  0.85003401  0.99141386  1
  C  C286  1  0.40816856  0.83970243  0.95694895  1
  C  C287  1  0.41090551  0.90237363  0.07285589  1
  C  C288  1  0.39663993  0.90472012  0.11126476  1
  C  C289  1  0.37757171  0.92623200  0.10442302  1
  C  C290  1  0.36366980  0.92748888  0.14006280  1
  C  C291  1  0.36680679  0.90548603  0.18000815  1
  C  C292  1  0.38548642  0.88350510  0.18563581  1
  C  C293  1  0.40099648  0.88346886  0.15194678  1
  C  C294  1  0.42172469  0.86143004  0.15663056  1
  C  C295  1  0.37239750  0.94824702  0.06087620  1
  C  C296  1  0.34938723  0.90622348  0.21405335  1
  C  C297  1  0.34329504  0.95017732  0.13395561  1
  C  C298  1  0.29958275  0.94841023  0.12071567  1
  C  C299  1  0.29701470  0.97921254  0.12308070  1
  C  C300  1  0.27399459  0.99185258  0.12055454  1
  C  C301  1  0.25310629  0.97411132  0.11453900  1
  C  C302  1  0.25648944  0.94295698  0.11275439  1
  C  C303  1  0.27928999  0.93031654  0.11532724  1
  C  C304  1  0.22801300  0.98439858  0.10978678  1
  C  C305  1  0.21745031  0.00981877  0.11832770  1
  C  C306  1  0.38833768  0.85997447  0.22789690  1
  C  C307  1  0.40943897  0.85182802  0.30226906  1
  C  C308  1  0.39927281  0.82294249  0.30945715  1
  C  C309  1  0.40862231  0.80173562  0.34603366  1
  C  C310  1  0.42808098  0.80861201  0.37726994  1
  C  C311  1  0.43683118  0.83884990  0.37101488  1
  C  C312  1  0.42726992  0.86026192  0.33433961  1
  C  C313  1  0.43715781  0.78444903  0.41263059  1
  C  C314  1  0.45866806  0.78241849  0.44208706  1
  C  C315  1  0.66734314  0.58697805  0.83152691  1
  C  C316  1  0.68309261  0.57040080  0.86622774  1
  C  C317  1  0.69658970  0.58304834  0.90171580  1
  C  C318  1  0.71367859  0.56518727  0.93394522  1
  C  C319  1  0.72587798  0.57671395  0.96989820  1
  C  C320  1  0.72157437  0.60679090  0.97449856  1
  C  C321  1  0.70566904  0.62541765  0.94236303  1
  C  C322  1  0.69297274  0.61364368  0.90705472  1
  C  C323  1  0.74623194  0.60042238  0.04724655  1
  C  C324  1  0.75242696  0.62010528  0.08247272  1
  C  C325  1  0.77219895  0.63989722  0.07790420  1
  C  C326  1  0.77713588  0.65988185  0.10911704  1
  C  C327  1  0.76212452  0.66114264  0.14330197  1
  C  C328  1  0.74149382  0.64263981  0.14525862  1
  C  C329  1  0.73679214  0.62138262  0.11571810  1
  C  C330  1  0.71560602  0.60036260  0.11709480  1
  C  C331  1  0.78848759  0.63839880  0.04220321  1
  C  C332  1  0.76898503  0.68296482  0.17525857  1
  C  C333  1  0.79827530  0.68070295  0.10613235  1
  C  C334  1  0.80740629  0.73298826  0.08730133  1
  C  C335  1  0.83170497  0.72459587  0.09921284  1
  C  C336  1  0.84913907  0.74673061  0.10125371  1
  C  C337  1  0.84309273  0.77792065  0.08882982  1
  C  C338  1  0.81838587  0.78583498  0.07502051  1
  C  C339  1  0.80075100  0.76366731  0.07438565  1
  C  C340  1  0.86211318  0.80007305  0.09142428  1
  C  C341  1  0.88576861  0.79146701  0.10180008  1
  C  C342  1  0.72485090  0.64571814  0.17982848  1
  C  C343  1  0.71862097  0.62234319  0.25472638  1
  C  C344  1  0.69850421  0.64131749  0.25237124  1
  C  C345  1  0.68259362  0.63505325  0.28441226  1
  C  C346  1  0.68614162  0.60975544  0.31998229  1
  C  C347  1  0.70774617  0.59232290  0.32335126  1
  C  C348  1  0.72388277  0.59886410  0.29149636  1
  C  C349  1  0.66820370  0.60295232  0.35030128  1
  C  C350  1  0.66852128  0.57871739  0.38619439  1
  C  C351  1  0.03982478  0.05820985  0.09088857  1
  C  C352  1  0.10848866  0.20056642  0.06918275  1
  C  C353  1  0.08133169  0.19311137  0.06823087  1
  C  C354  1  0.07877985  0.15850245  0.07506955  1
  C  C355  1  0.05320059  0.14529762  0.07581506  1
  C  C356  1  0.05500439  0.11049551  0.08144890  1
  C  C357  1  0.03166833  0.09158295  0.08258908  1
  C  C358  1  0.95431674  0.02125083  0.08970957  1
  C  C359  1  0.82045979  0.99874927  0.09045064  1
  C  C360  1  0.84116926  0.97805983  0.08225648  1
  C  C361  1  0.86409447  0.99794278  0.08283916  1
  C  C362  1  0.88928551  0.98369887  0.08456330  1
  C  C363  1  0.90862754  0.00865772  0.08538087  1
  C  C364  1  0.93468779  0.99724515  0.08771165  1
  C  C365  1  0.05824338  0.99225009  0.10006421  1
  C  C366  1  0.19230466  0.00611183  0.13228039  1
  C  C367  1  0.17188965  0.03005342  0.11460449  1
  C  C368  1  0.14837923  0.01136835  0.11366181  1
  C  C369  1  0.12361819  0.02721724  0.10599193  1
  C  C370  1  0.10381513  0.00294522  0.10667153  1
  C  C371  1  0.07815639  0.01612369  0.09797753  1
  C  C372  1  0.97867632  0.95193993  0.11719487  1
  C  C373  1  0.90597589  0.81136961  0.11629866  1
  C  C374  1  0.90531345  0.84469436  0.09293120  1
  C  C375  1  0.92896037  0.85941993  0.10747564  1
  C  C376  1  0.93147715  0.89243079  0.08600669  1
  C  C377  1  0.95579482  0.90450329  0.10374837  1
  C  C378  1  0.95916464  0.93815490  0.08648831  1
  C  C379  1  0.44441228  0.48924110  0.67183195  1
  C  C380  1  0.42619332  0.47848387  0.68710336  1
  C  C381  1  0.40605665  0.46959653  0.70511859  1
  C  C382  1  0.38762730  0.46484001  0.72408590  1
  C  C383  1  0.36828503  0.45811693  0.74522799  1
  C  C384  1  0.35065807  0.45013158  0.76553256  1
  C  C385  1  0.52790346  0.38462034  0.64970967  1
  C  C386  1  0.53088669  0.36052195  0.67566308  1
  C  C387  1  0.53419629  0.33301557  0.70101308  1
  C  C388  1  0.53796577  0.30615980  0.71840554  1
  C  C389  1  0.54339092  0.27742464  0.73596654  1
  C  C390  1  0.54957583  0.25080722  0.75168486  1
  C  C391  1  0.55412399  0.35087980  0.45920445  1
  C  C392  1  0.55700233  0.32710160  0.44168335  1
  C  C393  1  0.55995546  0.30270363  0.42372964  1
  C  C394  1  0.56270343  0.28002536  0.40705106  1
  C  C395  1  0.56473778  0.25463727  0.39072945  1
  C  C396  1  0.57079722  0.23440796  0.36830107  1
  C  C397  1  0.47860694  0.61314888  0.53510150  1
  C  C398  1  0.47611739  0.63943864  0.51521568  1
  C  C399  1  0.47403495  0.66899836  0.49818253  1
  C  C400  1  0.47252841  0.69697682  0.48835476  1
  C  C401  1  0.47040418  0.72687854  0.47690351  1
  C  C402  1  0.46694404  0.75456909  0.46410765  1
  C  C403  1  0.46723415  0.64864793  0.76486671  1
  C  C404  1  0.46325746  0.67590817  0.77067961  1
  C  C405  1  0.45856260  0.69994207  0.78851963  1
  C  C406  1  0.45422854  0.72267762  0.80396754  1
  C  C407  1  0.44951735  0.74691125  0.82112683  1
  C  C408  1  0.44479960  0.77050400  0.83823820  1
  C  C409  1  0.55855195  0.52400704  0.50751305  1
  C  C410  1  0.57540373  0.53667226  0.48987449  1
  C  C411  1  0.59418403  0.54920990  0.47037288  1
  C  C412  1  0.61211109  0.55725785  0.45122849  1
  C  C413  1  0.63121899  0.56512620  0.42980739  1
  C  C414  1  0.64891307  0.57237161  0.40938753  1
  C  C415  1  0.44803713  0.47470393  0.49709131  1
  C  C416  1  0.42820317  0.47209929  0.47600530  1
  C  C417  1  0.40680609  0.46889872  0.45239322  1
  C  C418  1  0.38832209  0.46442804  0.42763341  1
  C  C419  1  0.36904770  0.45903126  0.39996782  1
  C  C420  1  0.35252664  0.45208331  0.37245423  1
  C  C421  1  0.55843253  0.53934090  0.68252191  1
  C  C422  1  0.57871549  0.54316420  0.70111404  1
  C  C423  1  0.59975771  0.54847536  0.72437077  1
  C  C424  1  0.61706207  0.55562257  0.74982876  1
  C  C425  1  0.63476214  0.56478830  0.77755478  1
  C  C426  1  0.65104805  0.57367389  0.80358588  1
  O  O427  1  0.46056062  0.53601016  0.66874901  1
  O  O428  1  0.48128475  0.50146838  0.64046105  1
  O  O429  1  0.48875968  0.46276562  0.50824558  1
  O  O430  1  0.47357573  0.49035640  0.55550933  1
  O  O431  1  0.52093220  0.43788599  0.62630749  1
  O  O432  1  0.52351401  0.40832902  0.57486556  1
  O  O433  1  0.52731286  0.41309005  0.47442415  1
  O  O434  1  0.56717690  0.41339585  0.50996969  1
  O  O435  1  0.48967344  0.59094925  0.60737484  1
  O  O436  1  0.47929091  0.55960291  0.55585385  1
  O  O437  1  0.52074107  0.52262585  0.53355684  1
  O  O438  1  0.51857080  0.54319340  0.69140144  1
  O  O439  1  0.52784957  0.52984472  0.62578257  1
  O  O440  1  0.54203309  0.47866339  0.53551417  1
  O  O441  1  0.47770204  0.60005090  0.70269348  1
  O  O442  1  0.48556728  0.57016564  0.77468832  1
  O  O443  1  0.28383385  0.37986144  0.17330482  1
  O  O444  1  0.27691451  0.37875910  0.95690198  1
  O  O445  1  0.19924193  0.32692095  0.07627935  1
  O  O446  1  0.60454422  0.13027894  0.94504563  1
  O  O447  1  0.62043689  0.12104802  0.16561377  1
  O  O448  1  0.68983281  0.07229890  0.04951818  1
  O  O449  1  0.39801302  0.88171635  0.04601368  1
  O  O450  1  0.40200470  0.87243182  0.26466869  1
  O  O451  1  0.32120147  0.93405795  0.12262011  1
  O  O452  1  0.73295943  0.61985775  0.00854907  1
  O  O453  1  0.73389247  0.62655563  0.22241643  1
  O  O454  1  0.78977861  0.71174403  0.08841805  1
