# generated using pymatgen
data_CdH106C153(N4O3)2
_symmetry_space_group_name_H-M   'P 1'
_cell_length_a   78.50210812
_cell_length_b   78.68873601
_cell_length_c   36.90377157
_cell_angle_alpha   90.01546474
_cell_angle_beta   89.95336041
_cell_angle_gamma   88.01497847
_symmetry_Int_Tables_number   1
_chemical_formula_structural   CdH106C153(N4O3)2
_chemical_formula_sum   'Cd2 H212 C306 N16 O12'
_cell_volume   227826.26359410
_cell_formula_units_Z   2
loop_
 _symmetry_equiv_pos_site_id
 _symmetry_equiv_pos_as_xyz
  1  'x, y, z'
loop_
 _atom_site_type_symbol
 _atom_site_label
 _atom_site_symmetry_multiplicity
 _atom_site_fract_x
 _atom_site_fract_y
 _atom_site_fract_z
 _atom_site_occupancy
  Cd  Cd0  1  0.00141136  0.50035195  0.00275937  1
  Cd  Cd1  1  0.50167993  0.00052091  0.00028364  1
  H  H2  1  0.96366946  0.49603000  0.97889018  1
  H  H3  1  0.00888990  0.47392093  0.94011398  1
  H  H4  1  0.94722644  0.48448876  0.92750194  1
  H  H5  1  0.99425150  0.46118495  0.88757648  1
  H  H6  1  0.02285531  0.53053786  0.02944756  1
  H  H7  1  0.01691100  0.48239749  0.07326222  1
  H  H8  1  0.04656730  0.53637324  0.07186018  1
  H  H9  1  0.04020113  0.48654300  0.11805821  1
  H  H10  1  0.03916622  0.50490323  0.97956829  1
  H  H11  1  0.99391758  0.52690606  0.94079530  1
  H  H12  1  0.05562466  0.51646733  0.92813816  1
  H  H13  1  0.00857223  0.53964197  0.88819337  1
  H  H14  1  0.98000058  0.47052103  0.02923824  1
  H  H15  1  0.98588327  0.51861533  0.07335277  1
  H  H16  1  0.95626995  0.46462128  0.07164488  1
  H  H17  1  0.96258715  0.51439526  0.11817087  1
  H  H18  1  0.47851331  0.97128773  0.98239566  1
  H  H19  1  0.52519858  0.98303721  0.93725439  1
  H  H20  1  0.47266001  0.95112844  0.93254211  1
  H  H21  1  0.52069937  0.96402790  0.88441542  1
  H  H22  1  0.49620653  0.03884358  0.03184541  1
  H  H23  1  0.52334438  -0.00342569  0.07164843  1
  H  H24  1  0.51027498  0.05805070  0.07521001  1
  H  H25  1  0.53804395  0.01402392  0.11725648  1
  H  H26  1  0.52466162  0.02969298  0.98238536  1
  H  H27  1  0.47816672  0.01793237  0.93666461  1
  H  H28  1  0.53068748  0.04984151  0.93265106  1
  H  H29  1  0.48282499  0.03692883  0.88397663  1
  H  H30  1  0.50709106  0.96205811  0.03146872  1
  H  H31  1  0.47980666  0.00433711  0.07102569  1
  H  H32  1  0.49288684  0.94285325  0.07467793  1
  H  H33  1  0.46504526  0.98689556  0.11661667  1
  H  H34  1  0.50043785  0.52740909  0.44382475  1
  H  H35  1  0.49244909  0.55777841  0.44400283  1
  H  H36  1  0.49144331  0.55751755  0.56081750  1
  H  H37  1  0.50030377  0.52735904  0.56087856  1
  H  H38  1  0.52820012  0.49957384  0.44370027  1
  H  H39  1  0.55853849  0.49098880  0.44380178  1
  H  H40  1  0.52819090  0.49970414  0.56082301  1
  H  H41  1  0.50249561  0.47367699  0.56081387  1
  H  H42  1  0.51093459  0.44339548  0.56061492  1
  H  H43  1  0.51099914  0.44346031  0.44378696  1
  H  H44  1  0.50238172  0.47370237  0.44370145  1
  H  H45  1  0.47468305  0.50175389  0.56085920  1
  H  H46  1  0.44446912  0.51073001  0.56074202  1
  H  H47  1  0.44420157  0.50937033  0.44391761  1
  H  H48  1  0.47462989  0.50126302  0.44381141  1
  H  H49  1  0.55851141  0.49103696  0.56065757  1
  H  H50  1  0.10891362  0.57843604  0.27375924  1
  H  H51  1  0.10806987  0.54023410  0.29487375  1
  H  H52  1  0.12246128  0.52908232  0.34215045  1
  H  H53  1  0.14200727  0.53058265  0.39359958  1
  H  H54  1  0.14611795  0.58465505  0.37680603  1
  H  H55  1  0.12680923  0.58316655  0.32375631  1
  H  H56  1  0.16283061  0.53348728  0.42508327  1
  H  H57  1  0.14335375  0.53979647  0.44661788  1
  H  H58  1  0.13278240  0.56448551  0.52463443  1
  H  H59  1  0.13308270  0.54395023  0.50552096  1
  H  H60  1  0.13315135  0.56214049  0.47715617  1
  H  H61  1  0.18542023  0.53983986  0.41442412  1
  H  H62  1  0.19778828  0.52685839  0.44418077  1
  H  H63  1  0.20459897  0.54721298  0.43134914  1
  H  H64  1  0.18823739  0.57570881  0.58128942  1
  H  H65  1  0.20354000  0.58035546  0.54757038  1
  H  H66  1  0.20483227  0.56088570  0.57137070  1
  H  H67  1  0.21829822  0.55199227  0.52388376  1
  H  H68  1  0.21697888  0.54582386  0.47748535  1
  H  H69  1  0.24006325  0.54748417  0.49378888  1
  H  H70  1  0.26978857  0.55147754  0.49943029  1
  H  H71  1  0.26146867  0.60595981  0.48285357  1
  H  H72  1  0.23038168  0.60142369  0.47888448  1
  H  H73  1  0.29202711  0.59340608  0.49170672  1
  H  H74  1  0.29128624  0.55427228  0.50240337  1
  H  H75  1  0.16475092  0.58383360  0.56978836  1
  H  H76  1  0.14492469  0.57537047  0.55811130  1
  H  H77  1  0.14496239  0.59104563  0.60699281  1
  H  H78  1  0.12380532  0.59715096  0.65452064  1
  H  H79  1  0.12908152  0.54459217  0.69044668  1
  H  H80  1  0.14991605  0.53891697  0.64201162  1
  H  H81  1  0.10628224  0.58746432  0.70742744  1
  H  H82  1  0.11429201  0.54974992  0.72801773  1
  H  H83  1  0.55552228  0.11369608  0.28035467  1
  H  H84  1  0.59328167  0.10142782  0.29018115  1
  H  H85  1  0.60809690  0.11479458  0.34091694  1
  H  H86  1  0.60817462  0.13392689  0.39343672  1
  H  H87  1  0.55505251  0.14716430  0.37586131  1
  H  H88  1  0.55462676  0.12819707  0.32290341  1
  H  H89  1  0.60660004  0.15679714  0.42654827  1
  H  H90  1  0.59901994  0.13836824  0.44818613  1
  H  H91  1  0.57430379  0.13075074  0.52630857  1
  H  H92  1  0.59477450  0.12928918  0.50666774  1
  H  H93  1  0.57639278  0.13054638  0.47873329  1
  H  H94  1  0.59868412  0.18008156  0.41337715  1
  H  H95  1  0.61247433  0.19083459  0.44277368  1
  H  H96  1  0.59259451  0.20026258  0.42975895  1
  H  H97  1  0.56271611  0.18760647  0.57993295  1
  H  H98  1  0.55895642  0.20317403  0.54603607  1
  H  H99  1  0.57835485  0.20236568  0.57035212  1
  H  H100  1  0.58719860  0.21480781  0.52161916  1
  H  H101  1  0.59257385  0.21303001  0.47466513  1
  H  H102  1  0.59155795  0.23645024  0.49465949  1
  H  H103  1  0.58720854  0.26699201  0.50019182  1
  H  H104  1  0.53310969  0.26194939  0.48182583  1
  H  H105  1  0.53740531  0.23053684  0.47831586  1
  H  H106  1  0.54396362  0.28880932  0.48166160  1
  H  H107  1  0.58188538  0.29425526  0.50103235  1
  H  H108  1  0.55640601  0.16502483  0.57223979  1
  H  H109  1  0.56324668  0.14430900  0.55934757  1
  H  H110  1  0.54822790  0.14778718  0.60759204  1
  H  H111  1  0.54008017  0.12742071  0.65401434  1
  H  H112  1  0.59235961  0.12349244  0.69112544  1
  H  H113  1  0.60051435  0.14338771  0.64261258  1
  H  H114  1  0.54497718  0.11071585  0.70224192  1
  H  H115  1  0.58052071  0.10474299  0.73714946  1
  H  H116  1  0.88908825  0.44693035  0.72187300  1
  H  H117  1  0.90123691  0.40928989  0.71154495  1
  H  H118  1  0.88767509  0.39432879  0.66118497  1
  H  H119  1  0.86856476  0.39404965  0.60866816  1
  H  H120  1  0.85513091  0.44697217  0.62561377  1
  H  H121  1  0.87412338  0.44764260  0.67854374  1
  H  H122  1  0.84540167  0.39548211  0.57459154  1
  H  H123  1  0.86386546  0.40304014  0.55285362  1
  H  H124  1  0.87134271  0.42768941  0.47446202  1
  H  H125  1  0.87284460  0.40726864  0.49397888  1
  H  H126  1  0.87173463  0.42558631  0.52202485  1
  H  H127  1  0.82189825  0.40319615  0.58761936  1
  H  H128  1  0.81113164  0.38951273  0.55799465  1
  H  H129  1  0.80169429  0.40933221  0.57117809  1
  H  H130  1  0.81433964  0.43912235  0.42118349  1
  H  H131  1  0.79874295  0.44292724  0.45507655  1
  H  H132  1  0.79955305  0.42354981  0.43083835  1
  H  H133  1  0.78714168  0.41477275  0.47945748  1
  H  H134  1  0.78888375  0.40930967  0.52636243  1
  H  H135  1  0.76554043  0.41043892  0.50646087  1
  H  H136  1  0.73494591  0.41486487  0.50077690  1
  H  H137  1  0.74012210  0.46882959  0.51908440  1
  H  H138  1  0.77161991  0.46447440  0.52258174  1
  H  H139  1  0.71319024  0.45794757  0.51976923  1
  H  H140  1  0.70773730  0.42015814  0.49977937  1
  H  H141  1  0.83686610  0.44563322  0.42944805  1
  H  H142  1  0.85766207  0.43864826  0.44165718  1
  H  H143  1  0.85334347  0.45372175  0.39425187  1
  H  H144  1  0.87386854  0.46183724  0.34779451  1
  H  H145  1  0.87786609  0.40958938  0.31071611  1
  H  H146  1  0.85787245  0.40137992  0.35928968  1
  H  H147  1  0.89090831  0.45622093  0.29870131  1
  H  H148  1  0.89554717  0.41968800  0.26744537  1
  H  H149  1  0.42525376  0.89506013  0.73201879  1
  H  H150  1  0.46271628  0.89408377  0.70551986  1
  H  H151  1  0.47298790  0.87987423  0.65915010  1
  H  H152  1  0.47135033  0.86041398  0.60776655  1
  H  H153  1  0.41728551  0.85644093  0.62518824  1
  H  H154  1  0.41884716  0.87570700  0.67810339  1
  H  H155  1  0.46843708  0.83921024  0.57615706  1
  H  H156  1  0.46224550  0.85855760  0.55427886  1
  H  H157  1  0.43753509  0.86893832  0.47611134  1
  H  H158  1  0.45812054  0.86860929  0.49516205  1
  H  H159  1  0.43987593  0.86874293  0.52359587  1
  H  H160  1  0.46215607  0.81661209  0.58652664  1
  H  H161  1  0.47512777  0.80426764  0.55662096  1
  H  H162  1  0.45476333  0.79743340  0.56971891  1
  H  H163  1  0.42628852  0.81367137  0.41962728  1
  H  H164  1  0.42158035  0.79837198  0.45317898  1
  H  H165  1  0.44114757  0.79713854  0.42948807  1
  H  H166  1  0.45011699  0.78378285  0.47697091  1
  H  H167  1  0.45612111  0.78501618  0.52350801  1
  H  H168  1  0.45456998  0.76197408  0.50660831  1
  H  H169  1  0.45074462  0.73221037  0.50271308  1
  H  H170  1  0.39606441  0.74040226  0.51850941  1
  H  H171  1  0.40047187  0.77144225  0.52189058  1
  H  H172  1  0.40879280  0.70993669  0.51141137  1
  H  H173  1  0.44752752  0.71075621  0.49516969  1
  H  H174  1  0.41816942  0.83699760  0.43121495  1
  H  H175  1  0.42665839  0.85678165  0.44283496  1
  H  H176  1  0.41088724  0.85635877  0.39500094  1
  H  H177  1  0.40452023  0.87752414  0.34775403  1
  H  H178  1  0.45712096  0.87257570  0.31079138  1
  H  H179  1  0.46314057  0.85176948  0.35905357  1
  H  H180  1  0.41390114  0.89483958  0.29465815  1
  H  H181  1  0.45181753  0.88712778  0.27399370  1
  H  H182  1  0.41536320  0.49530264  0.47595558  1
  H  H183  1  0.38537688  0.50486667  0.47277120  1
  H  H184  1  0.39824372  0.55284136  0.52075054  1
  H  H185  1  0.42799047  0.54273569  0.52570895  1
  H  H186  1  0.35391547  0.57973964  0.52697190  1
  H  H187  1  0.32372539  0.58801940  0.52343654  1
  H  H188  1  0.31340129  0.53930050  0.47633223  1
  H  H189  1  0.34360143  0.53096670  0.47947013  1
  H  H190  1  0.54597918  0.43414147  0.49722635  1
  H  H191  1  0.56119887  0.40629872  0.49582040  1
  H  H192  1  0.51305583  0.38150210  0.50325711  1
  H  H193  1  0.49803562  0.40931746  0.50531153  1
  H  H194  1  0.52291500  0.33490342  0.50455526  1
  H  H195  1  0.53646409  0.30677586  0.51253683  1
  H  H196  1  0.58603184  0.32790709  0.49623515  1
  H  H197  1  0.57276172  0.35649672  0.49640482  1
  H  H198  1  0.56757151  0.45611850  0.50505941  1
  H  H199  1  0.59543974  0.44076040  0.50572833  1
  H  H200  1  0.62055535  0.48873923  0.50150802  1
  H  H201  1  0.59272235  0.50390002  0.50045558  1
  H  H202  1  0.66702111  0.47901875  0.49952570  1
  H  H203  1  0.69517972  0.46558035  0.49015979  1
  H  H204  1  0.67399481  0.41594954  0.50382128  1
  H  H205  1  0.64533562  0.42922217  0.50450872  1
  H  H206  1  0.50674192  0.58663666  0.47573398  1
  H  H207  1  0.49757036  0.61667061  0.47454009  1
  H  H208  1  0.44980505  0.60399737  0.52424985  1
  H  H209  1  0.45960363  0.57418549  0.52747439  1
  H  H210  1  0.42269925  0.64821273  0.52988737  1
  H  H211  1  0.41421545  0.67824622  0.52596215  1
  H  H212  1  0.46282824  0.68855253  0.47760284  1
  H  H213  1  0.47150003  0.65861935  0.48197911  1
  C  C214  1  0.96997352  0.48827037  0.95799476  1
  C  C215  1  0.99516145  0.47582278  0.93641778  1
  C  C216  1  0.96093897  0.48182594  0.92941769  1
  C  C217  1  0.98691209  0.46887983  0.90706163  1
  C  C218  1  0.96912063  0.47166180  0.90225735  1
  C  C219  1  0.02706985  0.52111867  0.04947610  1
  C  C220  1  0.02378307  0.49420874  0.07395502  1
  C  C221  1  0.03987274  0.52445400  0.07351989  1
  C  C222  1  0.03636537  0.49670189  0.09933768  1
  C  C223  1  0.04418288  0.51256470  0.10133183  1
  C  C224  1  0.03286977  0.51264606  0.95866953  1
  C  C225  1  0.00765038  0.52504094  0.93708454  1
  C  C226  1  0.04190391  0.51908942  0.93009048  1
  C  C227  1  0.01589514  0.53197145  0.90771417  1
  C  C228  1  0.03368688  0.52921154  0.90295640  1
  C  C229  1  0.97578038  0.47989918  0.04937603  1
  C  C230  1  0.97903614  0.50678805  0.07403316  1
  C  C231  1  0.96298719  0.47652139  0.07344994  1
  C  C232  1  0.96646919  0.50423488  0.09946788  1
  C  C233  1  0.95871844  0.48833227  0.10146356  1
  C  C234  1  0.48753107  0.96938005  0.96014914  1
  C  C235  1  0.51352249  0.97599057  0.93470283  1
  C  C236  1  0.48406808  0.95870272  0.93186570  1
  C  C237  1  0.51072298  0.96578111  0.90479894  1
  C  C238  1  0.49508057  0.95756968  0.90122583  1
  C  C239  1  0.50574789  0.03385218  0.05090793  1
  C  C240  1  0.52085605  0.01027883  0.07300944  1
  C  C241  1  0.51349197  0.04444256  0.07525835  1
  C  C242  1  0.52890465  0.01998302  0.09847262  1
  C  C243  1  0.52552885  0.03776414  0.10055446  1
  C  C244  1  0.51572569  0.03158994  0.96001827  1
  C  C245  1  0.48986138  0.02496967  0.93424323  1
  C  C246  1  0.51929555  0.04225419  0.93174501  1
  C  C247  1  0.49278634  0.03517697  0.90435276  1
  C  C248  1  0.50844946  0.04340823  0.90088010  1
  C  C249  1  0.49751270  0.96705451  0.05048259  1
  C  C250  1  0.48232839  0.99064099  0.07246869  1
  C  C251  1  0.48969119  0.95646596  0.07472394  1
  C  C252  1  0.47422709  0.98094767  0.09786714  1
  C  C253  1  0.47759841  0.96316970  0.09991069  1
  C  C254  1  0.49540818  0.49445331  0.50236833  1
  C  C255  1  0.50744270  0.50662046  0.50233203  1
  C  C256  1  0.50218536  0.52520651  0.50234688  1
  C  C257  1  0.52608365  0.50148674  0.50225723  1
  C  C258  1  0.50064179  0.47586461  0.50228453  1
  C  C259  1  0.47677213  0.49962794  0.50235801  1
  C  C260  1  0.49912032  0.53403555  0.46971308  1
  C  C261  1  0.49409627  0.55117123  0.46980584  1
  C  C262  1  0.49022039  0.55974513  0.50237525  1
  C  C263  1  0.49306924  0.55089548  0.53501043  1
  C  C264  1  0.49878084  0.53395102  0.53500943  1
  C  C265  1  0.53485750  0.49825548  0.46954383  1
  C  C266  1  0.55188678  0.49276469  0.46957477  1
  C  C267  1  0.56047694  0.48938169  0.50223301  1
  C  C268  1  0.55184317  0.49274323  0.53491409  1
  C  C269  1  0.53484574  0.49829892  0.53497020  1
  C  C270  1  0.50381966  0.46705791  0.53492586  1
  C  C271  1  0.50923323  0.45002751  0.53483618  1
  C  C272  1  0.51267770  0.44145194  0.50218605  1
  C  C273  1  0.50935439  0.45011786  0.46956120  1
  C  C274  1  0.50381107  0.46709090  0.46956205  1
  C  C275  1  0.46805132  0.50319004  0.53500360  1
  C  C276  1  0.45109629  0.50897248  0.53495226  1
  C  C277  1  0.44227492  0.51178473  0.50225906  1
  C  C278  1  0.45082829  0.50775005  0.46971754  1
  C  C279  1  0.46796604  0.50264585  0.46966788  1
  C  C280  1  0.10626543  0.56492332  0.27233086  1
  C  C281  1  0.11218674  0.55324436  0.29834143  1
  C  C282  1  0.12320788  0.55582162  0.32852915  1
  C  C283  1  0.12766525  0.54126391  0.34957491  1
  C  C284  1  0.13846332  0.54216456  0.37884362  1
  C  C285  1  0.14491276  0.55785896  0.38862867  1
  C  C286  1  0.14088845  0.57256690  0.36862022  1
  C  C287  1  0.13008546  0.57163297  0.33893144  1
  C  C288  1  0.15634589  0.54377637  0.44052394  1
  C  C289  1  0.16612105  0.54840651  0.47339610  1
  C  C290  1  0.18402330  0.54765390  0.47118090  1
  C  C291  1  0.19312831  0.55430751  0.50047253  1
  C  C292  1  0.18494716  0.56237611  0.53030408  1
  C  C293  1  0.16698557  0.56333751  0.53110058  1
  C  C294  1  0.15739039  0.55614570  0.50303699  1
  C  C295  1  0.13823758  0.55674123  0.50263812  1
  C  C296  1  0.19332337  0.54008024  0.43888602  1
  C  C297  1  0.19580074  0.57021023  0.55897235  1
  C  C298  1  0.21195441  0.55485579  0.49784327  1
  C  C299  1  0.23326301  0.57435410  0.48726154  1
  C  C300  1  0.24453554  0.56042700  0.49211885  1
  C  C301  1  0.26181505  0.56285710  0.49475430  1
  C  C302  1  0.26859866  0.57922496  0.49179538  1
  C  C303  1  0.25680474  0.59313548  0.48568074  1
  C  C304  1  0.23936559  0.59072084  0.48329426  1
  C  C305  1  0.28692304  0.58076069  0.49465210  1
  C  C306  1  0.29721325  0.56656170  0.49933284  1
  C  C307  1  0.15842045  0.57196280  0.56275867  1
  C  C308  1  0.14824937  0.56441405  0.62092066  1
  C  C309  1  0.14111350  0.58085582  0.62494539  1
  C  C310  1  0.12933915  0.58428281  0.65225885  1
  C  C311  1  0.12431812  0.57143668  0.67696037  1
  C  C312  1  0.13229040  0.55501773  0.67251919  1
  C  C313  1  0.14417725  0.55166072  0.64529310  1
  C  C314  1  0.11177439  0.57460386  0.70485383  1
  C  C315  1  0.10692861  0.56190285  0.72889775  1
  C  C316  1  0.56697579  0.10554707  0.27572230  1
  C  C317  1  0.58135497  0.10819922  0.29699006  1
  C  C318  1  0.58138275  0.11963882  0.32728010  1
  C  C319  1  0.59636174  0.12177837  0.34828119  1
  C  C320  1  0.59643185  0.13245285  0.37814739  1
  C  C321  1  0.58147432  0.14141982  0.38815234  1
  C  C322  1  0.56658479  0.13997789  0.36780954  1
  C  C323  1  0.56647492  0.12923238  0.33799359  1
  C  C324  1  0.59567543  0.15165199  0.44118554  1
  C  C325  1  0.59056277  0.16221627  0.47332470  1
  C  C326  1  0.59099505  0.18003213  0.47008545  1
  C  C327  1  0.58419269  0.18993479  0.49874942  1
  C  C328  1  0.57636393  0.18268907  0.52931695  1
  C  C329  1  0.57573854  0.16484189  0.53118824  1
  C  C330  1  0.58278420  0.15444005  0.50340973  1
  C  C331  1  0.58198900  0.13539720  0.50390816  1
  C  C332  1  0.59897812  0.18816947  0.43757573  1
  C  C333  1  0.56872608  0.19439926  0.55770429  1
  C  C334  1  0.58384596  0.20874534  0.49575390  1
  C  C335  1  0.56455264  0.23161945  0.48709135  1
  C  C336  1  0.57860945  0.24182904  0.49271776  1
  C  C337  1  0.57620364  0.25924137  0.49523585  1
  C  C338  1  0.55979857  0.26692754  0.49076821  1
  C  C339  1  0.54585134  0.25619538  0.48482088  1
  C  C340  1  0.54815249  0.23870619  0.48291748  1
  C  C341  1  0.55670110  0.28508063  0.49107855  1
  C  C342  1  0.56828378  0.29728881  0.49785769  1
  C  C343  1  0.56764735  0.15723004  0.56379940  1
  C  C344  1  0.57505478  0.14625769  0.62133873  1
  C  C345  1  0.55798972  0.14211801  0.62523997  1
  C  C346  1  0.55335122  0.13093922  0.65209378  1
  C  C347  1  0.56526912  0.12390226  0.67729131  1
  C  C348  1  0.58252226  0.12870059  0.67305394  1
  C  C349  1  0.58725369  0.13988885  0.64576437  1
  C  C350  1  0.55862014  0.11267734  0.70464693  1
  C  C351  1  0.56670817  0.10416896  0.73351831  1
  C  C352  1  0.89743706  0.43560146  0.72616899  1
  C  C353  1  0.89458830  0.42126824  0.70485141  1
  C  C354  1  0.88295422  0.42106561  0.67456494  1
  C  C355  1  0.88073518  0.40605003  0.65374021  1
  C  C356  1  0.87002443  0.40582286  0.62381154  1
  C  C357  1  0.86099898  0.42063487  0.61342910  1
  C  C358  1  0.86239705  0.43552090  0.63371737  1
  C  C359  1  0.87319102  0.43577726  0.66356191  1
  C  C360  1  0.85058240  0.40641362  0.56012834  1
  C  C361  1  0.83992010  0.41154586  0.52806208  1
  C  C362  1  0.82204610  0.41096602  0.53105791  1
  C  C363  1  0.81207780  0.41764848  0.50236714  1
  C  C364  1  0.81926839  0.42557757  0.47193986  1
  C  C365  1  0.83713935  0.42637982  0.47041670  1
  C  C366  1  0.84766085  0.41927943  0.49789107  1
  C  C367  1  0.86675223  0.42003025  0.49694008  1
  C  C368  1  0.81382407  0.40295467  0.56339830  1
  C  C369  1  0.80754518  0.43315498  0.44347689  1
  C  C370  1  0.79323604  0.41802088  0.50536259  1
  C  C371  1  0.77044047  0.43738230  0.51400607  1
  C  C372  1  0.76018569  0.42337356  0.50833760  1
  C  C373  1  0.74275258  0.42581520  0.50573912  1
  C  C374  1  0.73509405  0.44219930  0.51023380  1
  C  C375  1  0.74587252  0.45610696  0.51612340  1
  C  C376  1  0.76339476  0.45377374  0.51804734  1
  C  C377  1  0.71691255  0.44527680  0.51008115  1
  C  C378  1  0.70468617  0.43371318  0.50323024  1
  C  C379  1  0.84463140  0.43438308  0.43779078  1
  C  C380  1  0.85497159  0.42688384  0.38027371  1
  C  C381  1  0.85903130  0.44399242  0.37655632  1
  C  C382  1  0.87026321  0.44861935  0.34994766  1
  C  C383  1  0.87729930  0.43654133  0.32507893  1
  C  C384  1  0.87255397  0.41930434  0.32894176  1
  C  C385  1  0.86132272  0.41461062  0.35601669  1
  C  C386  1  0.88850994  0.44264722  0.29779999  1
  C  C387  1  0.89649850  0.43347602  0.26979460  1
  C  C388  1  0.43894451  0.89711986  0.73127976  1
  C  C389  1  0.44946612  0.89043126  0.70375055  1
  C  C390  1  0.44628705  0.87929932  0.67351986  1
  C  C391  1  0.46072057  0.87474333  0.65206340  1
  C  C392  1  0.45977220  0.86396466  0.62265819  1
  C  C393  1  0.44409254  0.85751566  0.61289593  1
  C  C394  1  0.42944178  0.86163641  0.63319384  1
  C  C395  1  0.43044604  0.87244718  0.66299927  1
  C  C396  1  0.45811920  0.84568661  0.56076845  1
  C  C397  1  0.45337420  0.83581938  0.52799178  1
  C  C398  1  0.45420041  0.81794678  0.52997345  1
  C  C399  1  0.44759987  0.80881639  0.50063206  1
  C  C400  1  0.43955357  0.81692109  0.47076081  1
  C  C401  1  0.43858554  0.83482857  0.47011124  1
  C  C402  1  0.44576717  0.84445346  0.49812689  1
  C  C403  1  0.44526728  0.86355316  0.49818276  1
  C  C404  1  0.46187863  0.80868902  0.56211508  1
  C  C405  1  0.43177028  0.80611486  0.44193604  1
  C  C406  1  0.44712643  0.79002475  0.50307449  1
  C  C407  1  0.42762705  0.76866076  0.51350119  1
  C  C408  1  0.44162849  0.75745573  0.50868135  1
  C  C409  1  0.43929037  0.74017341  0.50686736  1
  C  C410  1  0.42293449  0.73332465  0.51048279  1
  C  C411  1  0.40892008  0.74508361  0.51590871  1
  C  C412  1  0.41125157  0.76251266  0.51769327  1
  C  C413  1  0.42150334  0.71499260  0.50890437  1
  C  C414  1  0.43563381  0.70480480  0.50233352  1
  C  C415  1  0.43005350  0.84330226  0.43837558  1
  C  C416  1  0.43759351  0.85322738  0.38042012  1
  C  C417  1  0.42102106  0.86023150  0.37688728  1
  C  C418  1  0.41741346  0.87197039  0.34981785  1
  C  C419  1  0.43018667  0.87696764  0.32493090  1
  C  C420  1  0.44677278  0.86922871  0.32888637  1
  C  C421  1  0.45031451  0.85739236  0.35594765  1
  C  C422  1  0.42677645  0.88931099  0.29715965  1
  C  C423  1  0.43943928  0.89412693  0.27301791  1
  C  C424  1  0.41164481  0.50801457  0.48552584  1
  C  C425  1  0.39463170  0.51340087  0.48403996  1
  C  C426  1  0.38925095  0.52968715  0.49662540  1
  C  C427  1  0.40169132  0.54005302  0.51130936  1
  C  C428  1  0.41865277  0.53430206  0.51428708  1
  C  C429  1  0.42400219  0.51823882  0.50116588  1
  C  C430  1  0.35133796  0.55459545  0.50363602  1
  C  C431  1  0.34508778  0.57082391  0.51547540  1
  C  C432  1  0.32792779  0.57554735  0.51325817  1
  C  C433  1  0.31584418  0.56427140  0.49941434  1
  C  C434  1  0.32233193  0.54823010  0.48752813  1
  C  C435  1  0.33949168  0.54353035  0.48927196  1
  C  C436  1  0.53878077  0.42256876  0.49861220  1
  C  C437  1  0.54735561  0.40689309  0.49784880  1
  C  C438  1  0.53834758  0.39178274  0.49954547  1
  C  C439  1  0.52049427  0.39293566  0.50212811  1
  C  C440  1  0.51191221  0.40874747  0.50329949  1
  C  C441  1  0.52090921  0.42378189  0.50158144  1
  C  C442  1  0.54672866  0.34784170  0.50035997  1
  C  C443  1  0.53675085  0.33342241  0.50328542  1
  C  C444  1  0.54433602  0.31737942  0.50520178  1
  C  C445  1  0.56214459  0.31471154  0.50029657  1
  C  C446  1  0.57218564  0.32937790  0.49826406  1
  C  C447  1  0.56466239  0.34555746  0.49836868  1
  C  C448  1  0.57923055  0.46322571  0.50420274  1
  C  C449  1  0.59489249  0.45459066  0.50457136  1
  C  C450  1  0.61006796  0.46354962  0.50354292  1
  C  C451  1  0.60903983  0.48138643  0.50214665  1
  C  C452  1  0.59324340  0.49003603  0.50154848  1
  C  C453  1  0.57814382  0.48109632  0.50253069  1
  C  C454  1  0.65407146  0.45520861  0.50221764  1
  C  C455  1  0.66850983  0.46520517  0.49984202  1
  C  C456  1  0.68456906  0.45765452  0.49724447  1
  C  C457  1  0.68722483  0.43983210  0.50115537  1
  C  C458  1  0.67252836  0.42978286  0.50266083  1
  C  C459  1  0.65632247  0.43729718  0.50305212  1
  C  C460  1  0.49415216  0.59039338  0.48612392  1
  C  C461  1  0.48895549  0.60744275  0.48563251  1
  C  C462  1  0.47277766  0.61290485  0.49896042  1
  C  C463  1  0.46244752  0.60049442  0.51386418  1
  C  C464  1  0.46805050  0.58348435  0.51594486  1
  C  C465  1  0.48392666  0.57804148  0.50177033  1
  C  C466  1  0.44792843  0.65082088  0.50663347  1
  C  C467  1  0.43165592  0.65705544  0.51857000  1
  C  C468  1  0.42690944  0.67418273  0.51662887  1
  C  C469  1  0.43822384  0.68631466  0.50302526  1
  C  C470  1  0.45409348  0.67973216  0.48983655  1
  C  C471  1  0.45890787  0.66266001  0.49190543  1
  C  C472  1  0.04316340  0.53583456  0.87427957  1
  C  C473  1  0.05276178  0.54133169  0.85078510  1
  C  C474  1  0.06329008  0.54723263  0.82593417  1
  C  C475  1  0.07316554  0.55277968  0.80265824  1
  C  C476  1  0.08370889  0.55849812  0.77775540  1
  C  C477  1  0.09397879  0.56283414  0.75393595  1
  C  C478  1  0.51423944  0.05251988  0.87087737  1
  C  C479  1  0.52287968  0.06058430  0.84909581  1
  C  C480  1  0.53231140  0.06922869  0.82608584  1
  C  C481  1  0.54116175  0.07735091  0.80447152  1
  C  C482  1  0.54996862  0.08623544  0.78076539  1
  C  C483  1  0.55779887  0.09470061  0.75810630  1
  C  C484  1  0.94774901  0.48361145  0.12915901  1
  C  C485  1  0.93917746  0.47588307  0.15142133  1
  C  C486  1  0.93050233  0.46690444  0.17504922  1
  C  C487  1  0.92254117  0.45841144  0.19735504  1
  C  C488  1  0.91405648  0.44938534  0.22115968  1
  C  C489  1  0.90586696  0.44164303  0.24425559  1
  C  C490  1  0.46946516  0.95317756  0.12559939  1
  C  C491  1  0.46249725  0.94458591  0.14891471  1
  C  C492  1  0.45501949  0.93535600  0.17398413  1
  C  C493  1  0.44828585  0.92658242  0.19768311  1
  C  C494  1  0.44218093  0.91672848  0.22330155  1
  C  C495  1  0.43793547  0.90679126  0.24770844  1
  C  C496  1  0.53356306  0.04779901  0.12632733  1
  C  C497  1  0.54042493  0.05643093  0.14971841  1
  C  C498  1  0.54779349  0.06570885  0.17488467  1
  C  C499  1  0.55441795  0.07449801  0.19868847  1
  C  C500  1  0.56085673  0.08413173  0.22438329  1
  C  C501  1  0.56586445  0.09361791  0.24882798  1
  C  C502  1  0.05522386  0.51717386  0.12893918  1
  C  C503  1  0.06383510  0.52493212  0.15106586  1
  C  C504  1  0.07249052  0.53402553  0.17448303  1
  C  C505  1  0.08030410  0.54272082  0.19664838  1
  C  C506  1  0.08863081  0.55197226  0.22030367  1
  C  C507  1  0.09671147  0.55950175  0.24395363  1
  C  C508  1  0.95962477  0.46504958  0.87357277  1
  C  C509  1  0.95006974  0.45953316  0.85002253  1
  C  C510  1  0.93963174  0.45359241  0.82502757  1
  C  C511  1  0.92986234  0.44795919  0.80165397  1
  C  C512  1  0.91949356  0.44203093  0.77659164  1
  C  C513  1  0.90963833  0.43702013  0.75269726  1
  C  C514  1  0.48943856  0.94850631  0.87114263  1
  C  C515  1  0.48060618  0.94052626  0.84964388  1
  C  C516  1  0.47094333  0.93200859  0.82696679  1
  C  C517  1  0.46186872  0.92400666  0.80566039  1
  C  C518  1  0.45285203  0.91528635  0.78208968  1
  C  C519  1  0.44581365  0.90678127  0.75832065  1
  N  N520  1  0.01579874  0.51550762  0.96283253  1
  N  N521  1  0.98409088  0.49476841  0.04957110  1
  N  N522  1  0.98704335  0.48540865  0.96217262  1
  N  N523  1  0.01876324  0.50624724  0.04953299  1
  N  N524  1  0.50125144  0.02254501  0.96164508  1
  N  N525  1  0.49374830  0.98400815  0.04820503  1
  N  N526  1  0.50200470  0.97842297  0.96190068  1
  N  N527  1  0.50953465  0.01690208  0.04857290  1
  N  N528  1  0.37187701  0.53490428  0.49414269  1
  N  N529  1  0.36881294  0.54975919  0.50616316  1
  N  N530  1  0.54760798  0.37613395  0.49864273  1
  N  N531  1  0.53796445  0.36364477  0.50020453  1
  N  N532  1  0.62573174  0.45428227  0.50389295  1
  N  N533  1  0.63823993  0.46393361  0.50299823  1
  N  N534  1  0.46766161  0.63029649  0.49701932  1
  N  N535  1  0.45280787  0.63339185  0.50923863  1
  O  O536  1  0.15518718  0.55904695  0.41789534  1
  O  O537  1  0.15933918  0.56045543  0.59363716  1
  O  O538  1  0.21622840  0.57201301  0.48691143  1
  O  O539  1  0.58085031  0.15197551  0.41721219  1
  O  O540  1  0.57988368  0.15638494  0.59354431  1
  O  O541  1  0.56661133  0.21445475  0.48614423  1
  O  O542  1  0.85038767  0.42113808  0.58434034  1
  O  O543  1  0.84505320  0.42204903  0.40829153  1
  O  O544  1  0.78762847  0.43524409  0.51511515  1
  O  O545  1  0.44288343  0.84715937  0.58366432  1
  O  O546  1  0.44169282  0.84226071  0.40767890  1
  O  O547  1  0.42989857  0.78566895  0.51365746  1
