# generated using pymatgen
data_Si(H46C91)2
_symmetry_space_group_name_H-M   'P 1'
_cell_length_a   37.17221117
_cell_length_b   36.70954173
_cell_length_c   74.12618756
_cell_angle_alpha   71.93180428
_cell_angle_beta   71.98620437
_cell_angle_gamma   92.26540817
_symmetry_Int_Tables_number   1
_chemical_formula_structural   Si(H46C91)2
_chemical_formula_sum   'Si2 H184 C364'
_cell_volume   90417.07705417
_cell_formula_units_Z   2
loop_
 _symmetry_equiv_pos_site_id
 _symmetry_equiv_pos_as_xyz
  1  'x, y, z'
loop_
 _atom_site_type_symbol
 _atom_site_label
 _atom_site_symmetry_multiplicity
 _atom_site_fract_x
 _atom_site_fract_y
 _atom_site_fract_z
 _atom_site_occupancy
  Si  Si0  1  0.14220779  0.37491471  0.75162980  1
  Si  Si1  1  0.41101658  0.08514383  0.26216131  1
  H  H2  1  0.30680696  0.22385205  0.96535685  1
  H  H3  1  0.28255711  0.17150110  0.95489614  1
  H  H4  1  0.18115654  0.13817701  0.00839928  1
  H  H5  1  0.20616369  0.18943815  0.01942369  1
  H  H6  1  0.30292441  0.29483558  0.96477007  1
  H  H7  1  0.28144711  0.35983037  0.95336584  1
  H  H8  1  0.20627264  0.26093875  0.02063562  1
  H  H9  1  0.24601617  0.24539716  0.04865070  1
  H  H10  1  0.27047173  0.29791666  0.05892441  1
  H  H11  1  0.37159686  0.33089141  0.00528194  1
  H  H12  1  0.34642826  0.27934223  0.99446980  1
  H  H13  1  0.24976426  0.17418571  0.04919723  1
  H  H14  1  0.27133478  0.10925863  0.06065082  1
  H  H15  1  0.36881171  0.14394643  0.00516880  1
  H  H16  1  0.34641999  0.20804935  0.99334689  1
  H  H17  1  0.18396411  0.32514817  0.00883991  1
  H  H18  1  0.33316320  0.23882863  0.46802031  1
  H  H19  1  0.39765514  0.21738587  0.45682230  1
  H  H20  1  0.36419666  0.12002315  0.51297007  1
  H  H21  1  0.30041847  0.14221921  0.52444260  1
  H  H22  1  0.26191030  0.24331165  0.46884764  1
  H  H23  1  0.21001322  0.21831783  0.45877543  1
  H  H24  1  0.22910845  0.14154561  0.52300487  1
  H  H25  1  0.21622427  0.18672029  0.55207962  1
  H  H26  1  0.15181460  0.20834886  0.56333712  1
  H  H27  1  0.18534096  0.30570856  0.50718244  1
  H  H28  1  0.24894180  0.28335631  0.49566802  1
  H  H29  1  0.28756404  0.18223199  0.55122296  1
  H  H30  1  0.33953074  0.20760195  0.56114887  1
  H  H31  1  0.37083400  0.30984823  0.50747170  1
  H  H32  1  0.31984181  0.28378875  0.49696073  1
  H  H33  1  0.17821343  0.11582139  0.51234120  1
  H  H34  1  0.13604538  0.49924413  0.76806137  1
  H  H35  1  0.14531335  0.45953035  0.74640050  1
  H  H36  1  0.03428346  0.43317782  0.72895770  1
  H  H37  1  0.26122071  0.33826039  0.70804703  1
  H  H38  1  0.07433148  0.31395267  0.77241989  1
  H  H39  1  0.27530050  0.45123512  0.71261923  1
  H  H40  1  0.07867334  0.42460128  0.74774233  1
  H  H41  1  0.18016996  0.24727074  0.78777057  1
  H  H42  1  0.11507313  0.39723427  0.81982982  1
  H  H43  1  0.12797159  0.35785519  0.79803037  1
  H  H44  1  0.20765323  0.44165046  0.73323302  1
  H  H45  1  0.06090184  0.24603615  0.79361036  1
  H  H46  1  0.08274589  0.35091397  0.70168980  1
  H  H47  1  0.12716850  0.34218952  0.72042275  1
  H  H48  1  0.19353192  0.31511951  0.76634359  1
  H  H49  1  0.19326928  0.32872921  0.72801883  1
  H  H50  1  0.41586557  0.23055195  0.24475737  1
  H  H51  1  0.41008790  0.16366643  0.26703467  1
  H  H52  1  0.51977146  0.12411225  0.28497530  1
  H  H53  1  0.28545745  0.00012711  0.30839861  1
  H  H54  1  0.47799701  0.05266938  0.24221031  1
  H  H55  1  0.28374823  0.12131839  0.29861562  1
  H  H56  1  0.47500080  0.13685059  0.26644407  1
  H  H57  1  0.37329502  0.00037566  0.22512591  1
  H  H58  1  0.43475589  0.19152558  0.19412300  1
  H  H59  1  0.42305580  0.12424047  0.21669545  1
  H  H60  1  0.35138322  0.13546527  0.27766597  1
  H  H61  1  0.49168466  0.01340544  0.22067457  1
  H  H62  1  0.46738968  0.00525025  0.31333984  1
  H  H63  1  0.42264170  0.01767845  0.29476357  1
  H  H64  1  0.36031167  0.04166053  0.24569729  1
  H  H65  1  0.35351664  0.01347758  0.28814132  1
  H  H66  1  0.06044060  0.74275403  0.84566279  1
  H  H67  1  0.05614765  0.89011873  0.85044108  1
  H  H68  1  0.07297750  0.83036473  0.90659926  1
  H  H69  1  0.07378339  0.74119065  0.90174634  1
  H  H70  1  0.07268998  0.63652259  0.88778738  1
  H  H71  1  0.06478587  0.95152914  0.89015330  1
  H  H72  1  0.78042053  0.01400673  0.40771851  1
  H  H73  1  0.87059526  0.01197710  0.40988283  1
  H  H74  1  0.92916646  0.99409461  0.35393904  1
  H  H75  1  0.78175491  0.99784791  0.35226199  1
  H  H76  1  0.67736470  0.01280843  0.39341443  1
  H  H77  1  0.98953083  0.00079221  0.39406880  1
  H  H78  1  0.47647012  0.72265213  0.11115380  1
  H  H79  1  0.47929615  0.63154913  0.10993770  1
  H  H80  1  0.49794215  0.56990544  0.16534866  1
  H  H81  1  0.49393343  0.72039626  0.16637629  1
  H  H82  1  0.47849885  0.82657632  0.12577563  1
  H  H83  1  0.48934387  0.51094777  0.12460537  1
  H  H84  1  0.77299204  0.42478832  0.60577627  1
  H  H85  1  0.68141062  0.42024127  0.60577703  1
  H  H86  1  0.62351979  0.44148481  0.66086367  1
  H  H87  1  0.77134453  0.44102239  0.66125950  1
  H  H88  1  0.87671710  0.43066726  0.61917291  1
  H  H89  1  0.56138854  0.42665376  0.62269765  1
  H  H90  1  0.03814562  0.51457678  0.83661287  1
  H  H91  1  0.15673550  0.56338590  0.80921371  1
  H  H92  1  0.16984174  0.51056115  0.79586398  1
  H  H93  1  0.05141676  0.46071432  0.82404582  1
  H  H94  1  0.16303781  0.98823658  0.35254554  1
  H  H95  1  0.15413601  0.08388330  0.30378745  1
  H  H96  1  0.22413282  0.09994928  0.28983363  1
  H  H97  1  0.23302501  0.00248972  0.33788039  1
  H  H98  1  0.39715414  0.34199755  0.19465101  1
  H  H99  1  0.51570234  0.33294607  0.18618639  1
  H  H100  1  0.50024412  0.26213870  0.19944380  1
  H  H101  1  0.38136108  0.27121435  0.20837071  1
  H  H102  1  0.39104908  0.41080155  0.65734465  1
  H  H103  1  0.39717052  0.40606223  0.71496386  1
  H  H104  1  0.32697888  0.39747183  0.72886482  1
  H  H105  1  0.32090057  0.39887396  0.67162279  1
  H  H106  1  0.03541355  0.12541087  0.83237207  1
  H  H107  1  0.15505852  0.11603825  0.81213231  1
  H  H108  1  0.17048000  0.18622091  0.79514138  1
  H  H109  1  0.05095933  0.19594021  0.81796968  1
  H  H110  1  0.00722221  0.41700319  0.65856806  1
  H  H111  1  0.92487554  0.39512357  0.71730467  1
  H  H112  1  0.97592114  0.38641924  0.73187060  1
  H  H113  1  0.05808653  0.40596152  0.67320863  1
  H  H114  1  0.51513364  0.92804678  0.18889412  1
  H  H115  1  0.39642071  0.90722600  0.19618317  1
  H  H116  1  0.38330792  0.95676925  0.21175823  1
  H  H117  1  0.50299395  0.97867712  0.20357823  1
  H  H118  1  0.54479449  0.02016226  0.35551050  1
  H  H119  1  0.62808234  0.05345033  0.29620542  1
  H  H120  1  0.57782206  0.06979671  0.28153862  1
  H  H121  1  0.49404538  0.03374362  0.34092832  1
  H  H122  1  0.13322196  0.41126207  0.97508511  1
  H  H123  1  0.10504877  0.46916476  0.96214725  1
  H  H124  1  0.22004073  0.53664738  0.93317183  1
  H  H125  1  0.24634218  0.47764885  0.94684326  1
  H  H126  1  0.19906002  0.57912162  0.92266771  1
  H  H127  1  0.16978497  0.63776833  0.91250912  1
  H  H128  1  0.05763130  0.57045141  0.94068037  1
  H  H129  1  0.08509579  0.51072599  0.95109519  1
  H  H130  1  0.15112084  0.15637178  0.43316784  1
  H  H131  1  0.10605754  0.12906833  0.42070940  1
  H  H132  1  0.03228650  0.06877992  0.48320255  1
  H  H133  1  0.07834448  0.09726125  0.49461856  1
  H  H134  1  -0.00065835  0.04921814  0.47481948  1
  H  H135  1  0.95235889  0.02153881  0.46378714  1
  H  H136  1  0.02199623  0.07878111  0.40167833  1
  H  H137  1  0.06973973  0.10735723  0.41186894  1
  H  H138  1  0.30694078  0.41094288  0.06409535  1
  H  H139  1  0.33402622  0.45463024  0.07763243  1
  H  H140  1  0.44620949  0.41970660  0.05535507  1
  H  H141  1  0.41730750  0.37656412  0.04231575  1
  H  H142  1  0.46622606  0.45050551  0.06589379  1
  H  H143  1  0.49456216  0.49795438  0.07673879  1
  H  H144  1  0.38469192  0.53256170  0.09851776  1
  H  H145  1  0.35477410  0.48566727  0.08798035  1
  H  H146  1  0.38986449  0.29782471  0.58209455  1
  H  H147  1  0.43560693  0.32658292  0.59367252  1
  H  H148  1  0.52724964  0.33425200  0.53804294  1
  H  H149  1  0.48011815  0.30502964  0.52747386  1
  H  H150  1  0.56090603  0.35295328  0.54625920  1
  H  H151  1  0.60813414  0.38285596  0.55636764  1
  H  H152  1  0.52086340  0.37656362  0.61173690  1
  H  H153  1  0.47245264  0.34738540  0.60219277  1
  H  H154  1  0.13832316  0.06570162  0.98473607  1
  H  H155  1  0.10852205  0.02180929  0.97241503  1
  H  H156  1  0.21641544  0.04150002  0.92256228  1
  H  H157  1  0.24442797  0.08520901  0.93572970  1
  H  H158  1  0.19332691  0.00873391  0.91278550  1
  H  H159  1  0.16390007  0.96118036  0.90254630  1
  H  H160  1  0.05943255  0.94340997  0.95210052  1
  H  H161  1  0.08735982  0.99100311  0.96290990  1
  H  H162  1  0.10336813  0.35386728  0.54971825  1
  H  H163  1  0.04594307  0.38321318  0.56128177  1
  H  H164  1  0.97444100  0.27758995  0.56933901  1
  H  H165  1  0.03314234  0.24994320  0.55759689  1
  H  H166  1  0.93263905  0.29663189  0.58011823  1
  H  H167  1  0.87494333  0.32724104  0.58880870  1
  H  H168  1  0.94360251  0.43138887  0.58117415  1
  H  H169  1  0.00229902  0.40243182  0.57235404  1
  H  H170  1  0.41671567  0.05987716  0.04634469  1
  H  H171  1  0.44476484  1.00176269  0.05910437  1
  H  H172  1  0.33650293  0.92983144  0.07264409  1
  H  H173  1  0.31020890  0.98915769  0.05961905  1
  H  H174  1  0.35559595  0.88752058  0.08398642  1
  H  H175  1  0.38483619  0.82881655  0.09374158  1
  H  H176  1  0.49145185  0.89817683  0.08070375  1
  H  H177  1  0.46391653  0.95787781  0.07068079  1
  H  H178  1  0.51619229  0.17779447  0.46137205  1
  H  H179  1  0.57531630  0.15161685  0.44858496  1
  H  H180  1  0.50496767  0.04530037  0.45654337  1
  H  H181  1  0.44706605  0.07314375  0.46924010  1
  H  H182  1  0.54887908  0.02685119  0.44507938  1
  H  H183  1  0.60825400  -0.00079058  0.43550159  1
  H  H184  1  0.67545727  0.10429258  0.42780369  1
  H  H185  1  0.61710818  0.13370468  0.43714581  1
  C  C186  1  0.28357972  0.23007910  0.01459592  1
  C  C187  1  0.26902219  0.23890582  -0.00059101  1
  C  C188  1  0.25665678  0.20908131  0.99251350  1
  C  C189  1  0.25527165  0.27572332  0.99290715  1
  C  C190  1  0.29602372  0.25995691  0.02143701  1
  C  C191  1  0.29740775  0.19329387  0.02107029  1
  C  C192  1  0.27970293  0.20491047  0.97439213  1
  C  C193  1  0.26704697  0.17624336  0.96886024  1
  C  C194  1  0.23191561  0.15215840  0.98167218  1
  C  C195  1  0.20863376  0.15668515  0.99973561  1
  C  C196  1  0.22185445  0.18485242  0.00545239  1
  C  C197  1  0.27725689  0.30244263  0.97388478  1
  C  C198  1  0.26605912  0.33772484  0.96788168  1
  C  C199  1  0.23278175  0.34513425  0.98109145  1
  C  C200  1  0.21007007  0.31774478  0.99994395  1
  C  C201  1  0.22206337  0.28298913  0.00616526  1
  C  C202  1  0.27311330  0.26430189  0.03954152  1
  C  C203  1  0.28586204  0.29311613  0.04495796  1
  C  C204  1  0.32089192  0.31720640  0.03198809  1
  C  C205  1  0.34411579  0.31240876  0.01399081  1
  C  C206  1  0.33083177  0.28408648  0.00840901  1
  C  C207  1  0.27544504  0.16658077  0.04009203  1
  C  C208  1  0.28674265  0.13135990  0.04613657  1
  C  C209  1  0.32018119  0.12400865  0.03301120  1
  C  C210  1  0.34270998  0.15131848  0.01408672  1
  C  C211  1  0.33063137  0.18602094  0.00782699  1
  C  C212  1  0.27089601  0.22046165  0.51744626  1
  C  C213  1  0.27833518  0.20481437  0.50261835  1
  C  C214  1  0.31447336  0.19060591  0.49617371  1
  C  C215  1  0.24827099  0.19249267  0.49600489  1
  C  C216  1  0.23484499  0.23482234  0.52388577  1
  C  C217  1  0.30097515  0.23291241  0.52401144  1
  C  C218  1  0.34081770  0.21296947  0.47718093  1
  C  C219  1  0.37579315  0.20188839  0.47133320  1
  C  C220  1  0.38318555  0.16854852  0.48478029  1
  C  C221  1  0.35648609  0.14590242  0.50382105  1
  C  C222  1  0.32202426  0.15782605  0.50985546  1
  C  C223  1  0.24347855  0.21574968  0.47802112  1
  C  C224  1  0.21513037  0.20255181  0.47261827  1
  C  C225  1  0.19207446  0.16645322  0.48525013  1
  C  C226  1  0.19649501  0.14358471  0.50346882  1
  C  C227  1  0.22438890  0.15729576  0.50905737  1
  C  C228  1  0.20857248  0.21258138  0.54292051  1
  C  C229  1  0.17367566  0.22379512  0.54881793  1
  C  C230  1  0.16629934  0.25720220  0.53542592  1
  C  C231  1  0.19296841  0.27978630  0.51634600  1
  C  C232  1  0.22735358  0.26774301  0.51026245  1
  C  C233  1  0.30591638  0.20981178  0.54198824  1
  C  C234  1  0.33428350  0.22320907  0.54732023  1
  C  C235  1  0.35713621  0.25934143  0.53460804  1
  C  C236  1  0.35261175  0.28206102  0.51638466  1
  C  C237  1  0.32470064  0.26816804  0.51088553  1
  C  C238  1  0.10708997  0.38228131  0.73616330  1
  C  C239  1  0.19474989  0.38375953  0.73327390  1
  C  C240  1  0.05279962  0.39173748  0.71410440  1
  C  C241  1  0.13472390  0.32044450  0.76781831  1
  C  C242  1  0.12093046  0.45217093  0.79619322  1
  C  C243  1  0.13248125  0.46793190  0.77517609  1
  C  C244  1  0.13830185  0.44507587  0.76255581  1
  C  C245  1  0.05351750  0.41184556  0.72734035  1
  C  C246  1  0.13521170  0.40455832  0.77012705  1
  C  C247  1  0.25008819  0.36092128  0.71387142  1
  C  C248  1  0.09770492  0.29959292  0.77582052  1
  C  C249  1  0.25814960  0.42313044  0.71704447  1
  C  C250  1  0.07983161  0.40766780  0.73788789  1
  C  C251  1  0.15672328  0.26081478  0.78392784  1
  C  C252  1  0.12014382  0.41178896  0.80381800  1
  C  C253  1  0.27487996  0.39375109  0.71068307  1
  C  C254  1  0.12782523  0.38879533  0.79118283  1
  C  C255  1  0.21902183  0.41831201  0.72817184  1
  C  C256  1  0.11968367  0.23961936  0.79172512  1
  C  C257  1  0.09033344  0.26040428  0.78785487  1
  C  C258  1  0.08107167  0.36758375  0.71172937  1
  C  C259  1  0.10688178  0.36241128  0.72261458  1
  C  C260  1  0.16427549  0.30012709  0.77214360  1
  C  C261  1  0.21097882  0.35570193  0.72508395  1
  C  C262  1  0.44589938  0.07787518  0.27774862  1
  C  C263  1  0.35812995  0.07574396  0.28013511  1
  C  C264  1  0.50010422  0.06265716  0.29978297  1
  C  C265  1  0.41784420  0.05031347  0.24641684  1
  C  C266  1  0.42965810  0.21707579  0.21740710  1
  C  C267  1  0.41967304  0.20746364  0.23828481  1
  C  C268  1  0.41504883  0.16911415  0.25111085  1
  C  C269  1  0.49995564  0.09961798  0.28665414  1
  C  C270  1  0.41841829  0.13802345  0.24364244  1
  C  C271  1  0.29928130  0.03017695  0.30133394  1
  C  C272  1  0.45448014  0.04104263  0.23876759  1
  C  C273  1  0.29795136  0.09775541  0.29501242  1
  C  C274  1  0.47355441  0.10726267  0.27615431  1
  C  C275  1  0.39679908  0.01000478  0.22923537  1
  C  C276  1  0.43010245  0.18622836  0.21004119  1
  C  C277  1  0.27755854  0.06013189  0.30296414  1
  C  C278  1  0.42356389  0.14738646  0.22297523  1
  C  C279  1  0.33720265  0.10555648  0.28381180  1
  C  C280  1  0.43318603  -0.00091265  0.22233837  1
  C  C281  1  0.46196291  0.01718607  0.22672094  1
  C  C282  1  0.47037444  0.03434708  0.30273306  1
  C  C283  1  0.44442525  0.04143374  0.29194906  1
  C  C284  1  0.38920194  0.03459259  0.24089377  1
  C  C285  1  0.33844954  0.03768319  0.28987126  1
  C  C286  1  0.07009016  0.68690481  0.86376434  1
  C  C287  1  0.06553121  0.72705919  0.85948815  1
  C  C288  1  0.06401093  0.92597633  0.86754091  1
  C  C289  1  0.06116918  0.89027101  0.86411496  1
  C  C290  1  0.07156430  0.89116137  0.89933428  1
  C  C291  1  0.06950612  0.85623503  0.89552784  1
  C  C292  1  0.07269552  0.68761307  0.89623696  1
  C  C293  1  0.07087039  0.72688837  0.89127148  1
  C  C294  1  0.06363593  0.78756195  0.87071658  1
  C  C295  1  0.07167896  0.66766742  0.88298592  1
  C  C296  1  0.06620731  0.74739942  0.87305719  1
  C  C297  1  0.06312787  0.81897168  0.87364018  1
  C  C298  1  0.06600443  0.92512481  0.88620998  1
  C  C299  1  0.06377969  0.85471398  0.87786476  1
  C  C300  1  0.72745442  0.01251105  0.40225253  1
  C  C301  1  0.76626972  0.01058892  0.39733330  1
  C  C302  1  0.93035385  0.00914231  0.40298041  1
  C  C303  1  0.89609258  0.00782486  0.39901936  1
  C  C304  1  0.96496285  1.00259579  0.37091159  1
  C  C305  1  0.92966427  0.99957228  0.36746112  1
  C  C306  1  0.72720798  0.00907834  0.36987378  1
  C  C307  1  0.76649702  0.00390331  0.36584738  1
  C  C308  1  0.82633145  0.00232540  0.37643097  1
  C  C309  1  0.70803784  0.01135501  0.38890913  1
  C  C310  1  0.78659008  0.00518583  0.37927228  1
  C  C311  1  0.85845640  0.00158648  0.37801276  1
  C  C312  1  0.96374029  0.00318242  0.38987727  1
  C  C313  1  0.89456764  0.00207576  0.38138481  1
  C  C314  1  0.47797145  0.77610557  0.11679717  1
  C  C315  1  0.48019950  0.73679604  0.12153604  1
  C  C316  1  0.48249164  0.57130712  0.11610799  1
  C  C317  1  0.48361095  0.60539996  0.12054006  1
  C  C318  1  0.48846978  0.53450591  0.14813205  1
  C  C319  1  0.49190958  0.56996105  0.15189829  1
  C  C320  1  0.48272912  0.77564699  0.14896244  1
  C  C321  1  0.48778591  0.73597154  0.15284686  1
  C  C322  1  0.48897971  0.67558068  0.14248230  1
  C  C323  1  0.47990537  0.79549636  0.13009287  1
  C  C324  1  0.48613606  0.71588284  0.13942429  1
  C  C325  1  0.48980396  0.64255514  0.14160361  1
  C  C326  1  0.48757248  0.53675405  0.12906850  1
  C  C327  1  0.48926063  0.60595235  0.13829212  1
  C  C328  1  0.82587791  0.42588591  0.61137395  1
  C  C329  1  0.78712986  0.42814075  0.61617832  1
  C  C330  1  0.62154596  0.42230875  0.61283080  1
  C  C331  1  0.65596815  0.42484826  0.61649603  1
  C  C332  1  0.58734262  0.43114928  0.64445586  1
  C  C333  1  0.62282134  0.43521693  0.64756583  1
  C  C334  1  0.82642299  0.43163117  0.64326649  1
  C  C335  1  0.78686257  0.43545462  0.64756276  1
  C  C336  1  0.72673603  0.43500323  0.63756742  1
  C  C337  1  0.84568318  0.42983673  0.62413323  1
  C  C338  1  0.76678000  0.43364146  0.63422758  1
  C  C339  1  0.69417578  0.43431642  0.63657211  1
  C  C340  1  0.58784859  0.42706027  0.62622801  1
  C  C341  1  0.65771689  0.43216380  0.63372290  1
  C  C342  1  0.06755163  0.51407281  0.82778029  1
  C  C343  1  0.09594213  0.54516668  0.82420847  1
  C  C344  1  0.13294608  0.54130774  0.81241705  1
  C  C345  1  0.14034606  0.51114668  0.80450536  1
  C  C346  1  0.11173846  0.48111511  0.80784297  1
  C  C347  1  0.07517491  0.48322684  0.82033474  1
  C  C348  1  0.08854810  0.57693098  0.83164227  1
  C  C349  1  0.08340664  0.60483417  0.83779385  1
  C  C350  1  0.07800804  0.63534982  0.84465608  1
  C  C351  1  0.07359075  0.66219771  0.85171198  1
  C  C352  1  0.17629188  0.01222815  0.33842394  1
  C  C353  1  0.15207789  0.03426216  0.32926252  1
  C  C354  1  0.17147143  0.06625688  0.31148117  1
  C  C355  1  0.21107296  0.07536691  0.30367954  1
  C  C356  1  0.23468915  0.05213780  0.31247163  1
  C  C357  1  0.21599746  0.02021665  0.33003678  1
  C  C358  1  0.11170688  0.02564822  0.33700411  1
  C  C359  1  0.07645364  0.01907944  0.34336599  1
  C  C360  1  0.03800319  0.01223087  0.35039145  1
  C  C361  1  0.00266517  0.00658423  0.35743849  1
  C  C362  1  0.41999977  0.32455435  0.19569505  1
  C  C363  1  0.45784214  0.34430674  0.18930938  1
  C  C364  1  0.48607475  0.31960606  0.19086659  1
  C  C365  1  0.47721214  0.27935399  0.19852393  1
  C  C366  1  0.43942961  0.26052298  0.20537342  1
  C  C367  1  0.41107858  0.28431988  0.20360170  1
  C  C368  1  0.46640578  0.38529883  0.18195057  1
  C  C369  1  0.47277308  0.42105442  0.17559751  1
  C  C370  1  0.47933605  0.46008686  0.16848758  1
  C  C371  1  0.48472053  0.49589699  0.16126810  1
  C  C372  1  0.37712960  0.40744610  0.67317191  1
  C  C373  1  0.40056309  0.40991383  0.68482630  1
  C  C374  1  0.38041386  0.40549063  0.70527111  1
  C  C375  1  0.34081209  0.40080854  0.71305314  1
  C  C376  1  0.31810105  0.39830494  0.70128233  1
  C  C377  1  0.33732760  0.40080837  0.68126868  1
  C  C378  1  0.44098148  0.41599354  0.67717752  1
  C  C379  1  0.47623877  0.42082906  0.67103137  1
  C  C380  1  0.51467582  0.42588923  0.66429219  1
  C  C381  1  0.54998046  0.42978679  0.65759017  1
  C  C382  1  0.06512865  0.13874991  0.82397774  1
  C  C383  1  0.09375879  0.11429406  0.82267165  1
  C  C384  1  0.13202552  0.13365229  0.81262550  1
  C  C385  1  0.14060633  0.17348766  0.80319659  1
  C  C386  1  0.11156644  0.19727065  0.80325550  1
  C  C387  1  0.07382168  0.17868365  0.81504692  1
  C  C388  1  0.08508381  0.07361430  0.83108927  1
  C  C389  1  0.07857295  0.03799789  0.83817052  1
  C  C390  1  0.07199392  -0.00080872  0.84601551  1
  C  C391  1  0.06689009  0.96360848  0.85386176  1
  C  C392  1  -0.00018810  0.41005605  0.67482065  1
  C  C393  1  0.96073120  0.40792697  0.68635156  1
  C  C394  1  0.95430445  0.39875303  0.70729861  1
  C  C395  1  0.98363511  0.39405255  0.71558466  1
  C  C396  1  0.02225261  0.39649554  0.70396079  1
  C  C397  1  0.02899343  0.40374473  0.68326317  1
  C  C398  1  0.93066591  0.41397509  0.67799676  1
  C  C399  1  0.90411262  0.41897620  0.67111751  1
  C  C400  1  0.87514325  0.42431595  0.66349970  1
  C  C401  1  0.84976500  0.42860445  0.65571225  1
  C  C402  1  0.48572466  0.93345497  0.19437986  1
  C  C403  1  0.45671029  0.91083778  0.19203530  1
  C  C404  1  0.41990279  0.92193992  0.19844828  1
  C  C405  1  0.41249370  0.95034470  0.20750779  1
  C  C406  1  0.44116220  0.97065152  0.21115613  1
  C  C407  1  0.47840277  0.96209832  0.20325400  1
  C  C408  1  0.46401170  0.88056568  0.18374042  1
  C  C409  1  0.46955194  0.85378580  0.17685426  1
  C  C410  1  0.47534106  0.82456319  0.16925728  1
  C  C411  1  0.47984025  0.79873961  0.16159289  1
  C  C412  1  0.55261164  0.03095828  0.33912727  1
  C  C413  1  0.59204077  0.03632131  0.32739107  1
  C  C414  1  0.59876366  0.05006656  0.30628222  1
  C  C415  1  0.56988673  0.05924591  0.29790681  1
  C  C416  1  0.53097835  0.05366079  0.30974878  1
  C  C417  1  0.52344811  0.03858861  0.33071623  1
  C  C418  1  0.62213485  0.02867110  0.33567438  1
  C  C419  1  0.64885486  0.02298381  0.34240860  1
  C  C420  1  0.67806115  0.01708349  0.34985527  1
  C  C421  1  0.70374508  0.01242404  0.35744737  1
  C  C422  1  0.22038920  0.38063090  0.97501466  1
  C  C423  1  0.20759438  0.41030802  0.96915980  1
  C  C424  1  0.19095151  0.44241911  0.96194261  1
  C  C425  1  0.15108037  0.43923975  0.96604572  1
  C  C426  1  0.13588141  0.47150639  0.95856547  1
  C  C427  1  0.16053306  0.50701738  0.94667160  1
  C  C428  1  0.20068851  0.50969799  0.94226552  1
  C  C429  1  0.21569775  0.47739805  0.94983235  1
  C  C430  1  0.14398141  0.54121250  0.93925063  1
  C  C431  1  0.16804591  0.57703254  0.92753552  1
  C  C432  1  0.15203601  0.60990930  0.92186850  1
  C  C433  1  0.11188494  0.60765212  0.92829021  1
  C  C434  1  0.08823741  0.57141408  0.93793860  1
  C  C435  1  0.10391151  0.53840407  0.94362070  1
  C  C436  1  0.09446544  0.64034936  0.92202776  1
  C  C437  1  0.07989053  0.66803952  0.91464556  1
  C  C438  1  0.16473708  0.15370568  0.47849368  1
  C  C439  1  0.14178195  0.14210672  0.47212532  1
  C  C440  1  0.11652195  0.12824939  0.46448140  1
  C  C441  1  0.12472664  0.13738452  0.44357797  1
  C  C442  1  0.09939247  0.12198669  0.43686208  1
  C  C443  1  0.06554303  0.09721175  0.45100505  1
  C  C444  1  0.05773371  0.08803134  0.47201325  1
  C  C445  1  0.08303279  0.10355177  0.47861923  1
  C  C446  1  0.03817124  0.08070997  0.44421373  1
  C  C447  1  0.00478697  0.05618792  0.45874868  1
  C  C448  1  0.97825359  0.04046273  0.45274459  1
  C  C449  1  0.98403895  0.04830831  0.43216156  1
  C  C450  1  0.01764270  0.07272217  0.41761536  1
  C  C451  1  0.04426235  0.08870783  0.42346362  1
  C  C452  1  0.95681722  0.03198007  0.42612091  1
  C  C453  1  0.93439468  0.01915002  0.41955855  1
  C  C454  1  0.33316621  0.34614394  0.03805377  1
  C  C455  1  0.34543247  0.36931995  0.04418760  1
  C  C456  1  0.36118544  0.39310837  0.05203287  1
  C  C457  1  0.33720956  0.41411611  0.06241707  1
  C  C458  1  0.35259308  0.43792520  0.06997718  1
  C  C459  1  0.39214805  0.44039625  0.06739390  1
  C  C460  1  0.41586159  0.41820639  0.05743398  1
  C  C461  1  0.40031369  0.39442925  0.04993375  1
  C  C462  1  0.40880549  0.46647118  0.07485961  1
  C  C463  1  0.44822793  0.46913858  0.07233426  1
  C  C464  1  0.46438555  0.49563880  0.07826696  1
  C  C465  1  0.44198991  0.52063633  0.08637748  1
  C  C466  1  0.40203691  0.51533355  0.09061630  1
  C  C467  1  0.38557490  0.48891283  0.08475195  1
  C  C468  1  0.45884367  0.54766525  0.09242477  1
  C  C469  1  0.47259550  0.56942007  0.09910932  1
  C  C470  1  0.38454912  0.27268878  0.54112296  1
  C  C471  1  0.40761368  0.28505580  0.54717920  1
  C  C472  1  0.43312627  0.29996984  0.55432236  1
  C  C473  1  0.42015277  0.30585650  0.57304887  1
  C  C474  1  0.44590974  0.32178869  0.57930530  1
  C  C475  1  0.48495567  0.33192835  0.56685942  1
  C  C476  1  0.49763065  0.32607548  0.54799635  1
  C  C477  1  0.47182876  0.31005372  0.54186128  1
  C  C478  1  0.51278793  0.34882803  0.57319766  1
  C  C479  1  0.55144331  0.35858980  0.56043923  1
  C  C480  1  0.57816174  0.37528420  0.56594571  1
  C  C481  1  0.56737176  0.38271942  0.58424351  1
  C  C482  1  0.52880840  0.37187509  0.59728244  1
  C  C483  1  0.50185378  0.35536760  0.59185652  1
  C  C484  1  0.59510275  0.39911295  0.58991916  1
  C  C485  1  0.61790159  0.41212217  0.59620867  1
  C  C486  1  0.22016357  0.12368505  0.97516581  1
  C  C487  1  0.20827987  0.10047515  0.96892545  1
  C  C488  1  0.19299055  0.07611239  0.96119735  1
  C  C489  1  0.15434685  0.05914066  0.97136365  1
  C  C490  1  0.13815792  0.03513439  0.96422558  1
  C  C491  1  0.16046315  0.02821631  0.94659482  1
  C  C492  1  0.19899372  0.04630714  0.93614965  1
  C  C493  1  0.21505784  0.07038269  0.94336901  1
  C  C494  1  0.14334063  0.00182976  0.93940995  1
  C  C495  1  0.16439241  0.99396537  0.92191079  1
  C  C496  1  0.14818141  0.96718434  0.91612397  1
  C  C497  1  0.11094805  0.94671970  0.92777381  1
  C  C498  1  0.08907778  0.95715939  0.94415208  1
  C  C499  1  0.10496619  0.98399397  0.95003986  1
  C  C500  1  0.09496199  0.91855122  0.92202005  1
  C  C501  1  0.08203941  0.89540345  0.91576639  1
  C  C502  1  0.13124517  0.26959032  0.54158309  1
  C  C503  1  0.10205336  0.28295896  0.54701570  1
  C  C504  1  0.07040715  0.30054468  0.55330795  1
  C  C505  1  0.07471768  0.33819521  0.55424144  1
  C  C506  1  0.04261151  0.35398946  0.56083579  1
  C  C507  1  0.00609761  0.33207290  0.56664792  1
  C  C508  1  0.00216656  0.29441862  0.56540329  1
  C  C509  1  0.03430363  0.27879930  0.55879638  1
  C  C510  1  0.97198326  0.34875502  0.57353586  1
  C  C511  1  0.93567803  0.32680730  0.57921811  1
  C  C512  1  0.90331993  0.34362462  0.58402127  1
  C  C513  1  0.90671468  0.38280676  0.58269060  1
  C  C514  1  0.94246088  0.40280705  0.57968264  1
  C  C515  1  0.97496383  0.38631448  0.57486199  1
  C  C516  1  0.87406183  0.40077284  0.58768731  1
  C  C517  1  0.84594406  0.41565337  0.59398357  1
  C  C518  1  0.33276448  0.08866801  0.03926976  1
  C  C519  1  0.34568077  0.05907851  0.04514842  1
  C  C520  1  0.36228766  0.02684671  0.05225848  1
  C  C521  1  0.40020682  0.03097792  0.05220292  1
  C  C522  1  0.41531290  0.99848691  0.05950587  1
  C  C523  1  0.39249695  0.96159858  0.06712719  1
  C  C524  1  0.35434673  0.95781329  0.06717105  1
  C  C525  1  0.33942092  0.99035756  0.05984277  1
  C  C526  1  0.40872042  0.92710460  0.07459196  1
  C  C527  1  0.38589538  0.89037256  0.08211670  1
  C  C528  1  0.40193363  0.85743526  0.08759294  1
  C  C529  1  0.44113278  0.86033138  0.08531238  1
  C  C530  1  0.46247894  0.89689178  0.08018543  1
  C  C531  1  0.44676065  0.93003473  0.07463828  1
  C  C532  1  0.45734338  0.82661045  0.09148774  1
  C  C533  1  0.47019918  0.79738357  0.09881098  1
  C  C534  1  0.41822302  0.15605584  0.47877124  1
  C  C535  1  0.44755964  0.14314669  0.47300563  1
  C  C536  1  0.47948768  0.12654702  0.46594736  1
  C  C537  1  0.51537689  0.14907643  0.45999044  1
  C  C538  1  0.54773708  0.13430089  0.45276664  1
  C  C539  1  0.54420131  0.09679237  0.45129862  1
  C  C540  1  0.50791100  0.07430172  0.45731833  1
  C  C541  1  0.47557975  0.08923965  0.46454618  1
  C  C542  1  0.57854959  0.08086108  0.44393200  1
  C  C543  1  0.57607202  0.04340105  0.44243819  1
  C  C544  1  0.60893945  0.02763606  0.43718924  1
  C  C545  1  0.64446399  0.04836564  0.43392478  1
  C  C546  1  0.64723949  0.08744208  0.43280819  1
  C  C547  1  0.61457265  0.10353432  0.43800446  1
  C  C548  1  0.67796207  0.03214460  0.42799049  1
  C  C549  1  0.70693028  0.01941363  0.42062896  1
