# generated using pymatgen
data_Fe3H180C252O25
_symmetry_space_group_name_H-M   'P 1'
_cell_length_a   69.87712564
_cell_length_b   69.31304176
_cell_length_c   38.46091980
_cell_angle_alpha   89.16312776
_cell_angle_beta   90.84364607
_cell_angle_gamma   119.36158638
_symmetry_Int_Tables_number   1
_chemical_formula_structural   Fe3H180C252O25
_chemical_formula_sum   'Fe3 H180 C252 O25'
_cell_volume   162328.83213042
_cell_formula_units_Z   1
loop_
 _symmetry_equiv_pos_site_id
 _symmetry_equiv_pos_as_xyz
  1  'x, y, z'
loop_
 _atom_site_type_symbol
 _atom_site_label
 _atom_site_symmetry_multiplicity
 _atom_site_fract_x
 _atom_site_fract_y
 _atom_site_fract_z
 _atom_site_occupancy
  Fe  Fe0  1  0.70021703  0.39961361  0.51487845  1
  Fe  Fe1  1  0.67015446  0.34546112  0.51343638  1
  Fe  Fe2  1  0.64668476  0.37607034  0.51571911  1
  H  H3  1  0.88660287  0.89127518  0.98388085  1
  H  H4  1  0.88252130  0.89758734  0.06325103  1
  H  H5  1  0.90963148  0.92977781  0.09195514  1
  H  H6  1  0.94412990  0.96546075  0.09303185  1
  H  H7  1  0.95271454  0.95945844  0.98357355  1
  H  H8  1  0.91848015  0.92326372  0.98251181  1
  H  H9  1  0.97902517  0.99097694  0.08924944  1
  H  H10  1  0.96028752  -0.00021662  0.07494705  1
  H  H11  1  0.96393105  0.04438504  0.02489996  1
  H  H12  1  0.95977960  0.03146192  0.06595096  1
  H  H13  1  0.95485181  0.01574250  0.02765387  1
  H  H14  1  0.00455248  0.98890642  0.07357987  1
  H  H15  1  0.02410089  0.00943506  0.10135522  1
  H  H16  1  0.03211773  0.00368699  0.06104396  1
  H  H17  1  0.04349078  0.09043558  -0.00002271  1
  H  H18  1  0.05591448  0.07391707  0.99174809  1
  H  H19  1  0.06046354  0.08779779  0.03173169  1
  H  H20  1  0.06732242  0.06248118  0.05168251  1
  H  H21  1  0.05685024  0.03381149  0.06064410  1
  H  H22  1  0.09165929  0.05253651  0.05862918  1
  H  H23  1  0.12925335  0.06044102  0.04885121  1
  H  H24  1  0.11558511  0.04928721  0.93879201  1
  H  H25  1  0.07738063  0.04144453  0.94876776  1
  H  H26  1  0.15086598  0.05514083  0.96121571  1
  H  H27  1  0.15967994  0.06178879  0.04025381  1
  H  H28  1  0.01340356  0.07998337  0.98487278  1
  H  H29  1  0.98581207  0.06606943  -0.00153651  1
  H  H30  1  0.99484696  0.09687281  0.96955036  1
  H  H31  1  0.98134044  0.12306328  0.95726067  1
  H  H32  1  0.99147886  0.14266551  0.06500670  1
  H  H33  1  0.00404669  0.11558838  0.07751826  1
  H  H34  1  0.98074159  0.15701392  0.97301000  1
  H  H35  1  0.98344583  0.16726664  0.05098207  1
  H  H36  1  0.89773133  0.38066488  0.80678442  1
  H  H37  1  0.85300366  0.33901245  0.82160028  1
  H  H38  1  0.84876347  0.31584148  0.86628058  1
  H  H39  1  0.86212478  0.30431665  0.91749135  1
  H  H40  1  0.92752065  0.35878260  0.90046412  1
  H  H41  1  0.91429081  0.37025709  0.84825830  1
  H  H42  1  0.87890909  0.29344544  0.95063958  1
  H  H43  1  0.87455917  0.31392577  0.97039399  1
  H  H44  1  0.89494598  0.34641165  0.04605813  1
  H  H45  1  0.87252937  0.32394908  0.02563346  1
  H  H46  1  0.89347543  0.34502007  0.00023413  1
  H  H47  1  0.90271063  0.28767195  0.93841023  1
  H  H48  1  0.89475697  0.26488223  0.96711425  1
  H  H49  1  0.92255141  0.28143107  0.95482848  1
  H  H50  1  0.94583752  0.32276888  0.09899918  1
  H  H51  1  0.96040629  0.31705909  0.06691199  1
  H  H52  1  0.93824015  0.29522472  0.08903269  1
  H  H53  1  0.93690080  0.27710846  0.04300483  1
  H  H54  1  0.93102717  0.27331031  0.99755479  1
  H  H55  1  0.94417909  0.25643402  0.01506439  1
  H  H56  1  0.96449087  0.23697136  0.01034786  1
  H  H57  1  0.02547325  0.29933430  0.00378927  1
  H  H58  1  0.00389864  0.31897063  0.00155482  1
  H  H59  1  0.02419241  0.25921718  0.00347026  1
  H  H60  1  0.98094387  0.22706993  0.03974661  1
  H  H61  1  0.93956900  0.34716086  0.08884681  1
  H  H62  1  0.91791099  0.35212406  0.07646109  1
  H  H63  1  0.93654109  0.36842448  0.12589530  1
  H  H64  1  0.93010089  0.38890047  0.17161709  1
  H  H65  1  0.87081898  0.32858683  0.20056955  1
  H  H66  1  0.87857981  0.30842165  0.15643410  1
  H  H67  1  0.90614301  0.39014595  0.21946109  1
  H  H68  1  0.87184658  0.34260913  0.24105451  1
  H  H69  1  0.44857388  0.16307038  0.23387845  1
  H  H70  1  0.46750107  0.13187850  0.22024633  1
  H  H71  1  0.44805005  0.10485973  0.17403596  1
  H  H72  1  0.42363824  0.09239148  0.12298679  1
  H  H73  1  0.40971532  0.14597023  0.13609220  1
  H  H74  1  0.43496064  0.15934647  0.18606425  1
  H  H75  1  0.39342590  0.08005412  0.08846761  1
  H  H76  1  0.41766408  0.10001271  0.06755293  1
  H  H77  1  0.42889516  0.13337965  0.99181984  1
  H  H78  1  0.42956567  0.11065751  0.01168076  1
  H  H79  1  0.42897363  0.13130249  0.03756047  1
  H  H80  1  0.36337287  0.07378388  0.09958438  1
  H  H81  1  0.34866926  0.05116207  0.07125662  1
  H  H82  1  0.33776622  0.06846359  0.08273573  1
  H  H83  1  0.35572983  0.10962396  0.93813817  1
  H  H84  1  0.33556384  0.10380157  0.97021037  1
  H  H85  1  0.33614364  0.08205817  0.94773563  1
  H  H86  1  0.31926123  0.06311374  0.99291547  1
  H  H87  1  0.32089926  0.05713954  0.03755606  1
  H  H88  1  0.28641032  0.04328072  0.01960761  1
  H  H89  1  0.24724318  0.03182913  0.01650311  1
  H  H90  1  0.26265734  0.09930841  0.03564870  1
  H  H91  1  0.30229071  0.11081428  0.03774880  1
  H  H92  1  0.22794805  0.07518068  0.03199361  1
  H  H93  1  0.20746147  0.02616554  0.01023970  1
  H  H94  1  0.38555800  0.13249208  0.94632089  1
  H  H95  1  0.41187540  0.13774179  0.95990634  1
  H  H96  1  0.40993512  0.15405836  0.91258197  1
  H  H97  1  0.43676384  0.17575805  0.86775056  1
  H  H98  1  0.43562137  0.11641163  0.83153172  1
  H  H99  1  0.40939088  0.09488768  0.87798057  1
  H  H100  1  0.45857771  0.17961673  0.82183770  1
  H  H101  1  0.45608607  0.13858376  0.78693752  1
  H  H102  1  0.65754786  0.59675070  0.78432207  1
  H  H103  1  0.69270183  0.58516638  0.81082006  1
  H  H104  1  0.71602618  0.60448377  0.85473355  1
  H  H105  1  0.72724054  0.62934597  0.90476288  1
  H  H106  1  0.67216204  0.64027490  0.88639051  1
  H  H107  1  0.66087303  0.61541975  0.83560324  1
  H  H108  1  0.73762774  0.65717899  0.93679633  1
  H  H109  1  0.71795686  0.63245205  0.95749480  1
  H  H110  1  0.68470626  0.62033958  0.03219173  1
  H  H111  1  0.70711978  0.61984365  0.01267444  1
  H  H112  1  0.68655838  0.62079902  0.98642237  1
  H  H113  1  0.74436597  0.68717473  0.92517108  1
  H  H114  1  0.76666371  0.70159908  0.95423166  1
  H  H115  1  0.74976272  0.71289646  0.94119739  1
  H  H116  1  0.70911217  0.69399382  0.08536479  1
  H  H117  1  0.71424389  0.71444975  0.05285276  1
  H  H118  1  0.73623409  0.71379888  0.07494636  1
  H  H119  1  0.75416045  0.73059234  0.02971095  1
  H  H120  1  0.75855329  0.72901673  0.98457041  1
  H  H121  1  0.77368877  0.75923706  0.00109139  1
  H  H122  1  0.79049798  0.79925369  -0.00268567  1
  H  H123  1  0.72618953  0.79419030  0.99150347  1
  H  H124  1  0.70943251  0.75337447  0.98761396  1
  H  H125  1  0.76377663  0.83348641  0.99579921  1
  H  H126  1  0.79791981  0.82361255  0.03147895  1
  H  H127  1  0.68407786  0.66399408  0.07406219  1
  H  H128  1  0.67986953  0.63742182  0.06370802  1
  H  H129  1  0.66349941  0.63955277  0.11260753  1
  H  H130  1  0.64411244  0.61310423  0.15987391  1
  H  H131  1  0.70490377  0.61503374  0.19068570  1
  H  H132  1  0.72429946  0.64266000  0.14463337  1
  H  H133  1  0.64379824  0.58860941  0.20749465  1
  H  H134  1  0.68991857  0.60268473  0.23728132  1
  H  H135  1  0.82065258  0.33444525  0.73088948  1
  H  H136  1  0.85513732  0.40586424  0.73332055  1
  H  H137  1  0.88374687  0.40542136  0.77117008  1
  H  H138  1  0.85001442  0.33401262  0.76657839  1
  H  H139  1  0.76953706  0.40182289  0.63233488  1
  H  H140  1  0.74053774  0.40199858  0.59448396  1
  H  H141  1  0.70717259  0.33075781  0.59126065  1
  H  H142  1  0.73613297  0.33057546  0.62923360  1
  H  H143  1  0.50982109  0.22895999  0.26719923  1
  H  H144  1  0.50953895  0.17735619  0.33128392  1
  H  H145  1  0.48268728  0.14918076  0.29190839  1
  H  H146  1  0.48217675  0.20073468  0.22848569  1
  H  H147  1  0.58793327  0.26505384  0.43554376  1
  H  H148  1  0.61595804  0.29470417  0.47239633  1
  H  H149  1  0.61299161  0.34395023  0.40652822  1
  H  H150  1  0.58670442  0.31434769  0.36755878  1
  H  H151  1  0.49872915  0.18143933  0.68751771  1
  H  H152  1  0.52223630  0.22574263  0.77477350  1
  H  H153  1  0.49467498  0.19672328  0.81210254  1
  H  H154  1  0.47098217  0.15223945  0.72480462  1
  H  H155  1  0.60096309  0.31160110  0.67221546  1
  H  H156  1  0.62721121  0.34150242  0.63343042  1
  H  H157  1  0.60505988  0.29607531  0.54776072  1
  H  H158  1  0.57733414  0.26678208  0.58576987  1
  H  H159  1  0.66677303  0.52201440  0.25013360  1
  H  H160  1  0.65866189  0.55449627  0.33871103  1
  H  H161  1  0.65881646  0.58317470  0.30019398  1
  H  H162  1  0.66613227  0.55022200  0.21140340  1
  H  H163  1  0.66825877  0.47579023  0.44486028  1
  H  H164  1  0.67009662  0.44766206  0.48310210  1
  H  H165  1  0.67897800  0.41645605  0.39348777  1
  H  H166  1  0.67622724  0.44405736  0.35521315  1
  H  H167  1  0.65137250  0.51613651  0.76490800  1
  H  H168  1  0.67539479  0.56322429  0.68015013  1
  H  H169  1  0.67237967  0.59062282  0.71604872  1
  H  H170  1  0.65018900  0.54412788  0.80203852  1
  H  H171  1  0.68688732  0.48555085  0.58117802  1
  H  H172  1  0.69138576  0.45834494  0.54588957  1
  H  H173  1  0.66478603  0.41070156  0.62944682  1
  H  H174  1  0.66269303  0.43875360  0.66614261  1
  H  H175  1  0.82475723  0.33791881  0.32031615  1
  H  H176  1  0.85620220  0.40720243  0.29300949  1
  H  H177  1  0.88199731  0.40277091  0.25546810  1
  H  H178  1  0.85235139  0.33410835  0.28665326  1
  H  H179  1  0.77001497  0.40507517  0.39603625  1
  H  H180  1  0.74106482  0.40498543  0.43280505  1
  H  H181  1  0.71316459  0.33473299  0.44935766  1
  H  H182  1  0.74220413  0.33482706  0.41277119  1
  C  C183  1  0.88184009  0.88986052  0.01082363  1
  C  C184  1  0.89067137  0.90256885  0.03811796  1
  C  C185  1  0.91139845  0.92392801  0.03728514  1
  C  C186  1  0.91902425  0.93624958  0.06816177  1
  C  C187  1  0.93828362  0.95647579  0.06868334  1
  C  C188  1  0.95016328  0.96474564  0.03800979  1
  C  C189  1  0.94313206  0.95273055  0.00717553  1
  C  C190  1  0.92380803  0.93241025  0.00680176  1
  C  C191  1  0.97481335  0.99863652  0.06730159  1
  C  C192  1  0.99373420  0.02040615  0.05638928  1
  C  C193  1  0.01499314  0.02278496  0.05699636  1
  C  C194  1  0.03236757  0.04223129  0.04265577  1
  C  C195  1  0.02846928  0.05860043  0.02681311  1
  C  C196  1  0.00686542  0.05534241  0.02507370  1
  C  C197  1  0.98932410  0.03635984  0.04032531  1
  C  C198  1  0.96596066  0.03186477  0.03958185  1
  C  C199  1  0.01910845  0.00541456  0.07387425  1
  C  C200  1  0.04786933  0.07863467  0.01173060  1
  C  C201  1  0.05530162  0.04564578  0.04312579  1
  C  C202  1  0.08211988  0.04654297  0.00415541  1
  C  C203  1  0.09670173  0.05173147  0.03224435  1
  C  C204  1  0.11787482  0.05552959  0.02683243  1
  C  C205  1  0.12495396  0.05352836  0.99336945  1
  C  C206  1  0.11014218  0.04951880  0.96511116  1
  C  C207  1  0.08891612  0.04555531  0.97048171  1
  C  C208  1  0.14597600  0.05504811  0.98805015  1
  C  C209  1  0.15998534  0.05548388  0.01441686  1
  C  C210  1  0.00281428  0.07262817  0.00771070  1
  C  C211  1  0.00016029  0.10451449  0.02449536  1
  C  C212  1  0.99376802  0.10664200  0.99062238  1
  C  C213  1  0.98715860  0.12217094  0.98338147  1
  C  C214  1  0.98817899  0.13718038  0.00901146  1
  C  C215  1  0.99306422  0.13340091  0.04365318  1
  C  C216  1  0.99950663  0.11771704  0.05105542  1
  C  C217  1  0.98505050  0.15568879  0.99995035  1
  C  C218  1  0.98732718  0.17165835  0.02346638  1
  C  C219  1  0.88091607  0.36749869  0.80236013  1
  C  C220  1  0.87071269  0.34970568  0.82421052  1
  C  C221  1  0.88023024  0.34408084  0.85359898  1
  C  C222  1  0.86603162  0.32533586  0.87375546  1
  C  C223  1  0.87347492  0.31900623  0.90284422  1
  C  C224  1  0.89553336  0.33147842  0.91267133  1
  C  C225  1  0.91027662  0.34960975  0.89265674  1
  C  C226  1  0.90272870  0.35596027  0.86343742  1
  C  C227  1  0.88715527  0.30932870  0.96446300  1
  C  C228  1  0.89968627  0.30842328  0.99565097  1
  C  C229  1  0.91123669  0.29660565  0.99276367  1
  C  C230  1  0.92566979  0.29828544  0.02001318  1
  C  C231  1  0.92860249  0.31147310  0.04946912  1
  C  C232  1  0.91767946  0.32402448  0.05080978  1
  C  C233  1  0.90276294  0.32232288  0.02426122  1
  C  C234  1  0.89043429  0.33503594  0.02418760  1
  C  C235  1  0.90770663  0.28207022  0.96190597  1
  C  C236  1  0.94397674  0.31180818  0.07748687  1
  C  C237  1  0.93795854  0.28574820  0.01815909  1
  C  C238  1  0.97282081  0.28924356  0.00956111  1
  C  C239  1  0.96196583  0.26616903  0.01255705  1
  C  C240  1  0.97372399  0.25497535  0.01145710  1
  C  C241  1  0.99696179  0.26629405  0.00934317  1
  C  C242  1  0.00763112  0.28984314  0.00573623  1
  C  C243  1  0.99564050  0.30102462  0.00514725  1
  C  C244  1  0.00691781  0.25247706  0.00976298  1
  C  C245  1  -0.00593919  0.23071195  0.02100563  1
  C  C246  1  0.92206027  0.33893273  0.08132081  1
  C  C247  1  0.90702313  0.33740595  0.13698905  1
  C  C248  1  0.92190388  0.35991860  0.14189269  1
  C  C249  1  0.91839185  0.37137049  0.16810980  1
  C  C250  1  0.89998431  0.36076065  0.19032683  1
  C  C251  1  0.88569901  0.33771574  0.18532397  1
  C  C252  1  0.88961529  0.32613135  0.15979177  1
  C  C253  1  0.89525033  0.37234864  0.21709048  1
  C  C254  1  0.87872628  0.36053612  0.24002199  1
  C  C255  1  0.46114146  0.15793725  0.23487019  1
  C  C256  1  0.45839715  0.14065902  0.21486485  1
  C  C257  1  0.44344082  0.13292062  0.18513282  1
  C  C258  1  0.43984771  0.11412837  0.16588584  1
  C  C259  1  0.42618267  0.10714340  0.13670820  1
  C  C260  1  0.41560825  0.11886451  0.12560817  1
  C  C261  1  0.41833621  0.13714292  0.14446808  1
  C  C262  1  0.43232697  0.14433010  0.17322655  1
  C  C263  1  0.40083802  0.09598705  0.07430659  1
  C  C264  1  0.38726251  0.09530686  0.04310598  1
  C  C265  1  0.36412466  0.08289065  0.04506048  1
  C  C266  1  0.35139615  0.08348975  0.01664696  1
  C  C267  1  0.36144857  0.09732214  0.98742795  1
  C  C268  1  0.38461026  0.10983488  0.98614787  1
  C  C269  1  0.39771574  0.10876837  0.01368131  1
  C  C270  1  0.42238567  0.12166087  0.01357141  1
  C  C271  1  0.35303079  0.06850944  0.07613618  1
  C  C272  1  0.34668635  0.09836866  0.95952283  1
  C  C273  1  0.32674315  0.07058920  0.01813143  1
  C  C274  1  0.29685217  0.07801670  0.02727425  1
  C  C275  1  0.28129732  0.05575074  0.02211252  1
  C  C276  1  0.25899939  0.04924682  0.02085022  1
  C  C277  1  0.25167453  0.06487908  0.02533677  1
  C  C278  1  0.26792798  0.08709502  0.03188969  1
  C  C279  1  0.29008187  0.09360423  0.03291424  1
  C  C280  1  0.22927507  0.06075545  0.02459481  1
  C  C281  1  0.20952612  0.04259293  0.01460314  1
  C  C282  1  0.39504476  0.12440267  0.95492826  1
  C  C283  1  0.40924532  0.12333683  0.89966702  1
  C  C284  1  0.41621905  0.14590989  0.89586737  1
  C  C285  1  0.43091112  0.15803342  0.86990827  1
  C  C286  1  0.43856251  0.14808024  0.84601506  1
  C  C287  1  0.43031392  0.12490319  0.84937335  1
  C  C288  1  0.41561660  0.11268135  0.87560345  1
  C  C289  1  0.45428471  0.16225118  0.82005297  1
  C  C290  1  0.46259132  0.15600653  0.79327611  1
  C  C291  1  0.66639457  0.58752051  0.78766212  1
  C  C292  1  0.68197508  0.59242822  0.81272442  1
  C  C293  1  0.68758850  0.60779106  0.84125113  1
  C  C294  1  0.70627657  0.61219937  0.86168812  1
  C  C295  1  0.71246041  0.62600181  0.89016120  1
  C  C296  1  0.69979102  0.63564147  0.89937024  1
  C  C297  1  0.68159055  0.63224809  0.87916395  1
  C  C298  1  0.67541079  0.61834476  0.85054992  1
  C  C299  1  0.72195844  0.64952384  0.95086079  1
  C  C300  1  0.72276832  0.66278336  0.98177293  1
  C  C301  1  0.73497685  0.68605503  0.97921338  1
  C  C302  1  0.73373738  0.69853183  0.00682322  1
  C  C303  1  0.72024788  0.68831403  0.03592623  1
  C  C304  1  0.70747864  0.66501515  0.03715542  1
  C  C305  1  0.70898086  0.65200529  0.01051915  1
  C  C306  1  0.69621506  0.62713607  0.01058801  1
  C  C307  1  0.74952407  0.69740500  0.94857382  1
  C  C308  1  0.71978943  0.70316872  0.06363011  1
  C  C309  1  0.74598172  0.72319012  0.00481417  1
  C  C310  1  0.74028828  0.75373386  0.99572033  1
  C  C311  1  0.76309959  0.76665733  -0.00111500  1
  C  C312  1  0.77267050  0.78941940  -0.00125505  1
  C  C313  1  0.75976082  0.80009089  0.99828324  1
  C  C314  1  0.73661355  0.78656869  0.99341858  1
  C  C315  1  0.72710885  0.76368877  0.99159693  1
  C  C316  1  0.77163288  0.82354333  0.00161038  1
  C  C317  1  0.79333978  0.83323200  0.01364038  1
  C  C318  1  0.69263540  0.65469383  0.06772881  1
  C  C319  1  0.69488378  0.64165706  0.12457110  1
  C  C320  1  0.67244489  0.63384058  0.12943722  1
  C  C321  1  0.66163780  0.61921153  0.15656134  1
  C  C322  1  0.67286845  0.61205354  0.17982299  1
  C  C323  1  0.69571435  0.62074902  0.17453825  1
  C  C324  1  0.70669002  0.63594682  0.14808958  1
  C  C325  1  0.66161204  0.59577824  0.20705849  1
  C  C326  1  0.67256503  0.59081016  0.23200283  1
  C  C327  1  0.70731997  0.36750023  0.56246007  1
  C  C328  1  0.67468320  0.41329714  0.46603005  1
  C  C329  1  0.63241673  0.33795312  0.46699583  1
  C  C330  1  0.63341062  0.33733305  0.56251893  1
  C  C331  1  0.67688295  0.41551725  0.56034059  1
  C  C332  1  0.71010363  0.37068932  0.46956598  1
  C  C333  1  0.83451717  0.34987992  0.74005386  1
  C  C334  1  0.83541547  0.37017977  0.73006179  1
  C  C335  1  0.85396685  0.39016952  0.74135524  1
  C  C336  1  0.86990454  0.38988807  0.76245681  1
  C  C337  1  0.86792164  0.36957177  0.77462301  1
  C  C338  1  0.85040304  0.34964405  0.76111942  1
  C  C339  1  0.81865485  0.36989349  0.70938393  1
  C  C340  1  0.80355658  0.36885334  0.69136233  1
  C  C341  1  0.78711304  0.36768458  0.67174455  1
  C  C342  1  0.77201107  0.36662674  0.65371494  1
  C  C343  1  0.75522906  0.36619971  0.63281573  1
  C  C344  1  0.75589279  0.38634799  0.62288113  1
  C  C345  1  0.73998679  0.38647115  0.60149053  1
  C  C346  1  0.72294097  0.36653256  0.58827604  1
  C  C347  1  0.72108458  0.34629174  0.59970531  1
  C  C348  1  0.73706137  0.34616497  0.62116073  1
  C  C349  1  0.50374742  0.21141348  0.27252288  1
  C  C350  1  0.51196988  0.20547156  0.30245331  1
  C  C351  1  0.50371743  0.18242897  0.30832239  1
  C  C352  1  0.48850864  0.16660751  0.28613379  1
  C  C353  1  0.47986886  0.17274088  0.25713917  1
  C  C354  1  0.48817418  0.19563665  0.25115142  1
  C  C355  1  0.52747048  0.22215109  0.32407375  1
  C  C356  1  0.54102538  0.23758888  0.34168289  1
  C  C357  1  0.55580895  0.25455937  0.36061912  1
  C  C358  1  0.56937642  0.27011767  0.37800901  1
  C  C359  1  0.58488729  0.28733826  0.39884926  1
  C  C360  1  0.59361893  0.28239495  0.42913425  1
  C  C361  1  0.60910938  0.29891666  0.44983904  1
  C  C362  1  0.61565181  0.32115027  0.44272083  1
  C  C363  1  0.60743232  0.32666076  0.41296214  1
  C  C364  1  0.59269794  0.31008496  0.39117198  1
  C  C365  1  0.49768779  0.18466912  0.71490502  1
  C  C366  1  0.51248726  0.20609049  0.72797305  1
  C  C367  1  0.51069606  0.20965815  0.76387105  1
  C  C368  1  0.49495270  0.19348551  0.78455327  1
  C  C369  1  0.47968650  0.17237238  0.77113137  1
  C  C370  1  0.48216664  0.16836124  0.73583437  1
  C  C371  1  0.52828976  0.22300076  0.70715027  1
  C  C372  1  0.54222543  0.23821541  0.68959490  1
  C  C373  1  0.55739750  0.25478768  0.67050426  1
  C  C374  1  0.57132438  0.26999965  0.65294450  1
  C  C375  1  0.58689125  0.28699865  0.63185560  1
  C  C376  1  0.60158119  0.30845613  0.64465855  1
  C  C377  1  0.61626934  0.32515489  0.62298086  1
  C  C378  1  0.61744350  0.32073674  0.58778678  1
  C  C379  1  0.60385870  0.29944611  0.57496039  1
  C  C380  1  0.58849381  0.28313777  0.59612618  1
  C  C381  1  0.66501384  0.53550384  0.26099327  1
  C  C382  1  0.66380150  0.53644697  0.29780242  1
  C  C383  1  0.66069339  0.55381054  0.31078543  1
  C  C384  1  0.66121548  0.57012122  0.28916040  1
  C  C385  1  0.66488352  0.57033302  0.25304583  1
  C  C386  1  0.66505519  0.55157070  0.23943199  1
  C  C387  1  0.66521250  0.52071986  0.31954521  1
  C  C388  1  0.66687623  0.50687942  0.33773675  1
  C  C389  1  0.66868359  0.49178540  0.35749705  1
  C  C390  1  0.67033894  0.47792555  0.37564063  1
  C  C391  1  0.67197142  0.46211597  0.39695473  1
  C  C392  1  0.67053281  0.46269844  0.43365549  1
  C  C393  1  0.67164583  0.44703951  0.45505571  1
  C  C394  1  0.67456387  0.43023904  0.44087426  1
  C  C395  1  0.67653149  0.42939928  0.40481052  1
  C  C396  1  0.67508641  0.44492528  0.38334422  1
  C  C397  1  0.65654353  0.53272446  0.75471048  1
  C  C398  1  0.66433295  0.53771818  0.71994753  1
  C  C399  1  0.66958358  0.55905782  0.70682002  1
  C  C400  1  0.66804510  0.57443649  0.72713158  1
  C  C401  1  0.66267494  0.57016855  0.76282667  1
  C  C402  1  0.65616180  0.54849174  0.77548865  1
  C  C403  1  0.66634426  0.52214914  0.69976507  1
  C  C404  1  0.66827799  0.50844984  0.68249010  1
  C  C405  1  0.67037482  0.49353874  0.66369490  1
  C  C406  1  0.67230172  0.47983854  0.64642114  1
  C  C407  1  0.67433755  0.46420484  0.62631610  1
  C  C408  1  0.68245285  0.46924381  0.59186391  1
  C  C409  1  0.68456420  0.45394985  0.57192964  1
  C  C410  1  0.67734927  0.43254825  0.58478976  1
  C  C411  1  0.66966468  0.42713527  0.61896232  1
  C  C412  1  0.66855302  0.44279584  0.63947426  1
  C  C413  1  0.83743172  0.35208927  0.30615467  1
  C  C414  1  0.83774507  0.37271323  0.30805820  1
  C  C415  1  0.85487209  0.39095924  0.29012034  1
  C  C416  1  0.86923866  0.38832116  0.26888213  1
  C  C417  1  0.86745874  0.36716065  0.26473877  1
  C  C418  1  0.85234135  0.34979632  0.28648464  1
  C  C419  1  0.82161338  0.37375619  0.32788056  1
  C  C420  1  0.80666410  0.37287425  0.34537769  1
  C  C421  1  0.79029187  0.37165339  0.36451541  1
  C  C422  1  0.77526874  0.37054745  0.38208365  1
  C  C423  1  0.75853432  0.37004731  0.40235573  1
  C  C424  1  0.75759814  0.38978020  0.40816946  1
  C  C425  1  0.74168171  0.38978685  0.42886233  1
  C  C426  1  0.72611719  0.37011211  0.44518142  1
  C  C427  1  0.72589598  0.35013859  0.43813518  1
  C  C428  1  0.74191870  0.35016202  0.41751552  1
  C  C429  1  0.99275252  0.19326574  0.01470629  1
  C  C430  1  0.99678566  0.21269783  0.01318021  1
  C  C431  1  0.17559873  0.04899174  0.00944161  1
  C  C432  1  0.19109232  0.04516361  0.01150836  1
  C  C433  1  0.82903215  0.87029866  0.00355629  1
  C  C434  1  0.80922091  0.85438901  0.00569824  1
  O  O435  1  0.96913104  0.98436350  0.03692108  1
  O  O436  1  0.00737895  0.08999383  0.03275317  1
  O  O437  1  0.06116987  0.04257716  0.00815557  1
  O  O438  1  0.90345071  0.32625610  0.94152116  1
  O  O439  1  0.90898932  0.32571170  0.11052032  1
  O  O440  1  0.96121211  0.30025693  0.01066555  1
  O  O441  1  0.40203899  0.11312510  0.09732821  1
  O  O442  1  0.39600086  0.11128945  0.92635262  1
  O  O443  1  0.31892166  0.08580759  0.02759879  1
  O  O444  1  0.70478049  0.64872215  0.92772709  1
  O  O445  1  0.70600341  0.65521389  0.09748595  1
  O  O446  1  0.73070271  0.73129213  0.99637154  1
  O  O447  1  0.71196255  0.38658432  0.55042172  1
  O  O448  1  0.69050984  0.34923209  0.55363863  1
  O  O449  1  0.65598541  0.39756162  0.47519818  1
  O  O450  1  0.69313027  0.41657995  0.47809839  1
  O  O451  1  0.62823079  0.35182205  0.48170283  1
  O  O452  1  0.64961415  0.33620148  0.47257925  1
  O  O453  1  0.67244044  0.37381946  0.51523627  1
  O  O454  1  0.64436049  0.33065891  0.54459326  1
  O  O455  1  0.63427630  0.35600374  0.55868341  1
  O  O456  1  0.69508735  0.41675965  0.55210348  1
  O  O457  1  0.65808169  0.40146754  0.54843654  1
  O  O458  1  0.69499253  0.35218667  0.48147118  1
  O  O459  1  0.71265428  0.38970547  0.47735130  1
