# generated using pymatgen
data_H208C257O16
_symmetry_space_group_name_H-M   'P 1'
_cell_length_a   60.11005735
_cell_length_b   35.21691037
_cell_length_c   64.04157416
_cell_angle_alpha   98.86062210
_cell_angle_beta   91.17495528
_cell_angle_gamma   109.26676120
_symmetry_Int_Tables_number   1
_chemical_formula_structural   H208C257O16
_chemical_formula_sum   'H208 C257 O16'
_cell_volume   126078.54250418
_cell_formula_units_Z   1
loop_
 _symmetry_equiv_pos_site_id
 _symmetry_equiv_pos_as_xyz
  1  'x, y, z'
loop_
 _atom_site_type_symbol
 _atom_site_label
 _atom_site_symmetry_multiplicity
 _atom_site_fract_x
 _atom_site_fract_y
 _atom_site_fract_z
 _atom_site_occupancy
  H  H0  1  0.09580773  0.07680569  0.68291126  1
  H  H1  1  0.05172302  0.04171587  0.65142539  1
  H  H2  1  0.07797799  0.02971333  0.64839778  1
  H  H3  1  0.10083003  0.10305436  0.64771653  1
  H  H4  1  0.05277989  0.11584908  0.65113211  1
  H  H5  1  0.07921579  0.15297678  0.64625902  1
  H  H6  1  0.09812049  0.14649360  0.68099230  1
  H  H7  1  0.04779114  0.08980616  0.68546759  1
  H  H8  1  0.07101675  0.10741049  0.70577975  1
  H  H9  1  0.09520575  0.08107108  0.41915427  1
  H  H10  1  0.05259558  0.06522444  0.44662159  1
  H  H11  1  0.07930435  0.10698110  0.45224415  1
  H  H12  1  0.10183555  0.05889881  0.45319032  1
  H  H13  1  0.05271356  -0.00755728  0.44458564  1
  H  H14  1  0.07849303  0.98351599  0.45293861  1
  H  H15  1  0.09767977  0.01379230  0.42070453  1
  H  H16  1  0.04714651  0.01226643  0.41056520  1
  H  H17  1  0.06998030  0.02225529  0.39307827  1
  H  H18  1  0.96507020  0.57104833  0.82051240  1
  H  H19  1  0.99875849  0.59565154  0.79924392  1
  H  H20  1  0.08542129  0.45223067  0.75319365  1
  H  H21  1  0.07553800  0.51386079  0.76761416  1
  H  H22  1  0.02362799  0.54405317  0.72675439  1
  H  H23  1  0.03989845  0.43434474  0.69702590  1
  H  H24  1  0.03251935  0.49838049  0.71013210  1
  H  H25  1  0.06443258  0.65967314  0.76634411  1
  H  H26  1  0.07664641  0.62475640  0.75151849  1
  H  H27  1  0.10832611  0.63470846  0.76479182  1
  H  H28  1  0.14149077  0.61533390  0.77681819  1
  H  H29  1  0.09921211  0.55007584  0.82163002  1
  H  H30  1  0.06447825  0.56466629  0.80770203  1
  H  H31  1  0.01495455  0.60859296  0.72493907  1
  H  H32  1  0.04585477  0.63484844  0.72281723  1
  H  H33  1  0.03700362  0.73603385  0.76522341  1
  H  H34  1  0.03805672  0.79543623  0.74794957  1
  H  H35  1  0.01905637  0.71596047  0.68716923  1
  H  H36  1  0.02005976  0.65789631  0.70409231  1
  H  H37  1  0.02199767  0.57613238  0.77754164  1
  H  H38  1  0.02139237  0.62669214  0.77656232  1
  H  H39  1  0.95249969  0.54934543  0.74197703  1
  H  H40  1  0.91806773  0.52837899  0.76358611  1
  H  H41  1  0.96674796  0.45089186  0.26515766  1
  H  H42  1  0.99893376  0.45824816  0.29120232  1
  H  H43  1  0.08500295  0.69297957  0.34721071  1
  H  H44  1  0.07524511  0.61940193  0.33214975  1
  H  H45  1  0.02379921  0.53102192  0.36688495  1
  H  H46  1  0.03928301  0.65973216  0.39725644  1
  H  H47  1  0.03208024  0.58680883  0.38397702  1
  H  H48  1  0.06237023  0.45892017  0.33315869  1
  H  H49  1  0.07556695  0.50925783  0.34830407  1
  H  H50  1  0.10690056  0.52799243  0.33753884  1
  H  H51  1  0.13855877  0.59293359  0.33483389  1
  H  H52  1  0.09856806  0.61120265  0.28361163  1
  H  H53  1  0.06376363  0.55426714  0.29077958  1
  H  H54  1  0.01334011  0.45554334  0.36702325  1
  H  H55  1  0.04406179  0.46355118  0.37330361  1
  H  H56  1  0.03563583  0.35358826  0.32950478  1
  H  H57  1  0.03615582  0.29490610  0.34677047  1
  H  H58  1  0.02337166  0.35722210  0.40638685  1
  H  H59  1  0.02072544  0.41359257  0.38878844  1
  H  H60  1  0.02202411  0.49871607  0.31605628  1
  H  H61  1  0.01881611  0.44601621  0.31650307  1
  H  H62  1  0.95161765  0.45575382  0.34117616  1
  H  H63  1  0.91777384  0.43582197  0.31422442  1
  H  H64  1  0.76054892  0.36280131  0.15759564  1
  H  H65  1  0.76004213  0.27746603  0.13671376  1
  H  H66  1  0.73096101  0.24693020  0.10601820  1
  H  H67  1  0.70704578  0.25345894  0.07620963  1
  H  H68  1  0.72430088  0.38177541  0.10054933  1
  H  H69  1  0.74919701  0.37603089  0.12988841  1
  H  H70  1  0.67812635  0.26886664  0.05584175  1
  H  H71  1  0.70608569  0.28241559  0.04526933  1
  H  H72  1  0.73134076  0.33989523  0.00584625  1
  H  H73  1  0.71858798  0.29072289  0.01219593  1
  H  H74  1  0.73094168  0.33339821  0.03263624  1
  H  H75  1  0.65428725  0.29447006  0.06663997  1
  H  H76  1  0.63223310  0.26813739  0.04581041  1
  H  H77  1  0.63360071  0.31659272  0.05956073  1
  H  H78  1  0.66875070  0.39013020  0.98119866  1
  H  H79  1  0.65201508  0.40169838  0.00217174  1
  H  H80  1  0.64014315  0.35653854  0.98332299  1
  H  H81  1  0.61900607  0.33793175  0.00912568  1
  H  H82  1  0.61756744  0.32382897  0.03465914  1
  H  H83  1  0.58736242  0.33501640  0.02414074  1
  H  H84  1  0.55255690  0.35592566  0.02440653  1
  H  H85  1  0.59588837  0.47985551  0.05019275  1
  H  H86  1  0.63161570  0.45884771  0.04911346  1
  H  H87  1  0.55439022  0.46568229  0.04383706  1
  H  H88  1  0.52168116  0.37769728  0.02469416  1
  H  H89  1  0.70090723  0.39605628  0.98498859  1
  H  H90  1  0.72269688  0.37577471  0.99175760  1
  H  H91  1  0.72992759  0.41397010  0.96644882  1
  H  H92  1  0.75892929  0.42961196  0.94002120  1
  H  H93  1  0.72740145  0.30733378  0.90483718  1
  H  H94  1  0.69842894  0.29166991  0.93178196  1
  H  H95  1  0.77479165  0.41495964  0.90957725  1
  H  H96  1  0.75563325  0.33018691  0.88096312  1
  H  H97  1  0.30345370  0.78095409  0.94415900  1
  H  H98  1  0.28479724  0.68766305  0.94278865  1
  H  H99  1  0.29495983  0.65676148  0.96664951  1
  H  H100  1  0.31945762  0.65209467  -0.00353847  1
  H  H101  1  0.36038379  0.77955949  0.00111346  1
  H  H102  1  0.33588490  0.78447216  0.97090573  1
  H  H103  1  0.34862513  0.65300815  0.01681716  1
  H  H104  1  0.32874793  0.67133008  0.03174679  1
  H  H105  1  0.33187003  0.72519860  0.08418471  1
  H  H106  1  0.31924498  0.67865598  0.06660040  1
  H  H107  1  0.33120449  0.72480326  0.05656461  1
  H  H108  1  0.38087110  0.66027611  0.01212401  1
  H  H109  1  0.38663819  0.62364311  0.02543606  1
  H  H110  1  0.40947000  0.66953951  0.02325965  1
  H  H111  1  0.40853915  0.72912744  0.11746068  1
  H  H112  1  0.43041740  0.73604840  0.09878303  1
  H  H113  1  0.41748776  0.68799630  0.10642649  1
  H  H114  1  0.42822302  0.66644467  0.07670792  1
  H  H115  1  0.42317788  0.65687766  0.04871345  1
  H  H116  1  0.45493995  0.65126543  0.05715481  1
  H  H117  1  0.49599897  0.65368379  0.05881647  1
  H  H118  1  0.51981907  0.78529065  0.06622313  1
  H  H119  1  0.47786075  0.78279327  0.06422796  1
  H  H120  1  0.54936338  0.75120431  0.06613955  1
  H  H121  1  0.53254839  0.65810250  0.06783748  1
  H  H122  1  0.38477083  0.75695388  0.11506342  1
  H  H123  1  0.35537222  0.74778793  0.10563080  1
  H  H124  1  0.36372847  0.78104880  0.14104406  1
  H  H125  1  0.34213715  0.79651166  0.17138183  1
  H  H126  1  0.31358048  0.66804616  0.17494411  1
  H  H127  1  0.33608624  0.65322248  0.14508695  1
  H  H128  1  0.31128527  0.77449353  0.19587081  1
  H  H129  1  0.30259449  0.68704095  0.20406154  1
  H  H130  1  0.93260386  0.56786757  0.83530798  1
  H  H131  1  0.90114534  0.53211641  0.85595298  1
  H  H132  1  0.86944171  0.44141644  0.80030769  1
  H  H133  1  0.90150880  0.47606603  0.78013095  1
  H  H134  1  0.86589908  0.48012588  0.85937235  1
  H  H135  1  0.84295387  0.41349443  0.82016346  1
  H  H136  1  0.80662429  0.36131866  0.82490724  1
  H  H137  1  0.77404993  0.33157208  0.84610212  1
  H  H138  1  0.80881990  0.42469446  0.89989052  1
  H  H139  1  0.83994231  0.45613245  0.87856486  1
  H  H140  1  0.94000588  0.40485311  0.24667978  1
  H  H141  1  0.90908677  0.38620354  0.21799813  1
  H  H142  1  0.86267195  0.42066736  0.26206758  1
  H  H143  1  0.89468070  0.44483093  0.28982472  1
  H  H144  1  0.86999796  0.37232468  0.20529708  1
  H  H145  1  0.83626263  0.39659880  0.23637296  1
  H  H146  1  0.79693658  0.38124925  0.22405158  1
  H  H147  1  0.76513756  0.35889158  0.19569628  1
  H  H148  1  0.81051346  0.31989199  0.15247883  1
  H  H149  1  0.84253920  0.34397262  0.18024349  1
  H  H150  1  0.15969736  0.55292781  0.80800152  1
  H  H151  1  0.19537858  0.58322273  0.83220111  1
  H  H152  1  0.17344717  0.68688556  0.85440555  1
  H  H153  1  0.13796770  0.65624562  0.83012464  1
  H  H154  1  0.22005587  0.63508239  0.85931225  1
  H  H155  1  0.20412767  0.70911880  0.87522166  1
  H  H156  1  0.22947246  0.76185026  0.90181745  1
  H  H157  1  0.26365604  0.78945174  0.92764770  1
  H  H158  1  0.28459749  0.68496436  0.90589914  1
  H  H159  1  0.25121824  0.65814196  0.87965744  1
  H  H160  1  0.16366173  0.58765103  0.31290427  1
  H  H161  1  0.20149259  0.61629666  0.29799047  1
  H  H162  1  0.17002267  0.68120337  0.26104104  1
  H  H163  1  0.13310885  0.65559042  0.27741276  1
  H  H164  1  0.22467596  0.65200909  0.27353501  1
  H  H165  1  0.20287505  0.69956580  0.24712026  1
  H  H166  1  0.22755915  0.73650190  0.22274778  1
  H  H167  1  0.26295383  0.75298656  0.20314679  1
  H  H168  1  0.29183401  0.68542124  0.24010539  1
  H  H169  1  0.25704775  0.66998755  0.26013404  1
  H  H170  1  0.53710589  0.51339924  0.06293248  1
  H  H171  1  0.54833095  0.53280318  0.03823129  1
  H  H172  1  0.49728333  0.51638562  0.05325974  1
  H  H173  1  0.50838485  0.53575099  0.02848843  1
  H  H174  1  0.53750788  0.59784640  0.05018858  1
  H  H175  1  0.52838544  0.57862549  0.07540805  1
  H  H176  1  0.03065679  0.29990175  0.70077596  1
  H  H177  1  0.10664054  0.35006599  0.71051040  1
  H  H178  1  0.10424801  0.41874030  0.72196000  1
  H  H179  1  0.02841977  0.36924555  0.71039178  1
  H  H180  1  0.08013134  0.88437325  0.70742670  1
  H  H181  1  0.00668220  0.85919044  0.68863529  1
  H  H182  1  0.99692762  0.78926180  0.69663353  1
  H  H183  1  0.07007368  0.81525411  0.71684370  1
  H  H184  1  0.10423423  0.81558166  0.40712201  1
  H  H185  1  0.03317008  0.78706997  0.37994977  1
  H  H186  1  0.03038898  0.71477414  0.36922155  1
  H  H187  1  0.10215544  0.74441169  0.39461903  1
  H  H188  1  0.07542573  0.26751517  0.41421975  1
  H  H189  1  0.01035080  0.18394323  0.38105509  1
  H  H190  1  1.00102507  0.24192770  0.37038289  1
  H  H191  1  0.06475362  0.32570617  0.40557178  1
  H  H192  1  0.07177690  0.01883826  0.54840017  1
  H  H193  1  0.04802707  0.00154121  0.51541197  1
  H  H194  1  0.04697659  0.00225296  0.47724348  1
  H  H195  1  0.11149827  0.10641760  0.48662310  1
  H  H196  1  0.11162638  0.10689861  0.52528305  1
  H  H197  1  0.10820063  0.01192335  0.55713886  1
  H  H198  1  0.12729767  0.05586602  0.57479688  1
  H  H199  1  0.09752346  0.03201146  0.58097961  1
  H  H200  1  0.04446740  0.04940068  0.54792669  1
  H  H201  1  0.09198964  0.13833770  0.58052176  1
  H  H202  1  0.10193191  0.14313274  0.61835888  1
  H  H203  1  0.05148128  0.02165956  0.61671238  1
  H  H204  1  0.04172559  0.01743313  0.57900385  1
  H  H205  1  0.03062409  0.10463238  0.55308172  1
  H  H206  1  0.05389464  0.14621308  0.56861583  1
  H  H207  1  0.04723296  0.14773058  0.54143768  1
  C  C208  1  0.07624954  0.06506468  0.67931619  1
  C  C209  1  0.07112780  0.05422700  0.65484221  1
  C  C210  1  0.08133696  0.09168592  0.64440574  1
  C  C211  1  0.07223743  0.12613696  0.65406023  1
  C  C212  1  0.07856632  0.13803666  0.67814911  1
  C  C213  1  0.06722134  0.10003284  0.68846919  1
  C  C214  1  0.07573991  0.07011196  0.42072417  1
  C  C215  1  0.07180063  0.07465288  0.44472974  1
  C  C216  1  0.08264945  0.04797827  0.45541288  1
  C  C217  1  0.07217280  0.00342877  0.44448379  1
  C  C218  1  0.07816944  0.99945318  0.42111714  1
  C  C219  1  0.06653475  0.02476426  0.40995376  1
  C  C220  1  0.98125116  0.57933872  0.79125859  1
  C  C221  1  0.05267678  0.50854720  0.74025762  1
  C  C222  1  0.07378316  0.46214618  0.74375096  1
  C  C223  1  0.06789827  0.49638626  0.75206038  1
  C  C224  1  0.03803746  0.60281150  0.75022109  1
  C  C225  1  0.03795956  0.56297852  0.73850782  1
  C  C226  1  0.06308742  0.43876623  0.72418659  1
  C  C227  1  0.04768532  0.45156130  0.71257822  1
  C  C228  1  0.04319346  0.48762895  0.72017259  1
  C  C229  1  0.06268910  0.62732376  0.76185763  1
  C  C230  1  0.08433192  0.60209872  0.78618151  1
  C  C231  1  0.10570003  0.61513253  0.77680353  1
  C  C232  1  0.12506305  0.60670850  0.78468570  1
  C  C233  1  0.12383807  0.58939155  0.80311686  1
  C  C234  1  0.10142362  0.57013307  0.80986358  1
  C  C235  1  0.08174697  0.57726645  0.80169264  1
  C  C236  1  0.03197528  0.62663232  0.73392736  1
  C  C237  1  0.02937071  0.69417186  0.73555332  1
  C  C238  1  0.03337580  0.73215371  0.74814415  1
  C  C239  1  0.03402554  0.76515117  0.73849901  1
  C  C240  1  0.02902100  0.75970223  0.71649130  1
  C  C241  1  0.02319871  0.72074345  0.70423431  1
  C  C242  1  0.02385302  0.68797255  0.71374694  1
  C  C243  1  0.01956492  0.59681804  0.76713768  1
  C  C244  1  0.97780059  0.57073043  0.76920150  1
  C  C245  1  0.95506905  0.55316612  0.75918106  1
  C  C246  1  0.93589727  0.54012368  0.77128819  1
  C  C247  1  0.93929795  0.54415066  0.79348560  1
  C  C248  1  0.96204301  0.56628410  0.80332443  1
  C  C249  1  0.98139935  0.45513340  0.29648485  1
  C  C250  1  0.05245526  0.59914820  0.35658342  1
  C  C251  1  0.07322700  0.66979418  0.35513084  1
  C  C252  1  0.06754239  0.62852566  0.34650676  1
  C  C253  1  0.03697874  0.48780711  0.34513991  1
  C  C254  1  0.03790400  0.52794839  0.35699095  1
  C  C255  1  0.06269380  0.68107305  0.37319574  1
  C  C256  1  0.04731343  0.65099571  0.38303771  1
  C  C257  1  0.04284495  0.60955535  0.37521424  1
  C  C258  1  0.06120859  0.48976305  0.33656117  1
  C  C259  1  0.08308575  0.53759243  0.31449129  1
  C  C260  1  0.10439668  0.54728423  0.32653827  1
  C  C261  1  0.12353835  0.58035274  0.32303890  1
  C  C262  1  0.12293625  0.59845409  0.30499669  1
  C  C263  1  0.10058224  0.59234949  0.29500767  1
  C  C264  1  0.08090679  0.56083688  0.29921127  1
  C  C265  1  0.03024706  0.45661338  0.36032805  1
  C  C266  1  0.02843910  0.38685653  0.35822269  1
  C  C267  1  0.03216757  0.35333451  0.34612482  1
  C  C268  1  0.03238808  0.32070338  0.35574261  1
  C  C269  1  0.02974831  0.32230848  0.37756852  1
  C  C270  1  0.02615025  0.35625733  0.38957272  1
  C  C271  1  0.02482937  0.38821016  0.37971806  1
  C  C272  1  0.01839773  0.47464452  0.32589445  1
  C  C273  1  0.97725964  0.45857555  0.31791871  1
  C  C274  1  0.95451325  0.45298009  0.32433067  1
  C  C275  1  0.93563813  0.44269817  0.30913103  1
  C  C276  1  0.93944328  0.43915450  0.28734068  1
  C  C277  1  0.96277531  0.44750475  0.28143437  1
  C  C278  1  0.76739155  0.33737476  0.15463711  1
  C  C279  1  0.75803757  0.30734411  0.13749093  1
  C  C280  1  0.74277124  0.31091002  0.12041315  1
  C  C281  1  0.73020195  0.27700217  0.10470495  1
  C  C282  1  0.71655566  0.28061497  0.08774467  1
  C  C283  1  0.71490323  0.31870428  0.08584688  1
  C  C284  1  0.72614926  0.35234259  0.10164815  1
  C  C285  1  0.74002252  0.34871899  0.11839901  1
  C  C286  1  0.69225767  0.29452128  0.05112816  1
  C  C287  1  0.68285101  0.31362535  0.03494386  1
  C  C288  1  0.66035749  0.31789381  0.03700048  1
  C  C289  1  0.65237610  0.33844069  0.02278672  1
  C  C290  1  0.66635386  0.35445996  0.00654371  1
  C  C291  1  0.68862078  0.34939698  0.00440010  1
  C  C292  1  0.69694764  0.32899461  0.01858004  1
  C  C293  1  0.72055451  0.32314288  0.01720102  1
  C  C294  1  0.64447523  0.29860957  0.05305497  1
  C  C295  1  0.65653106  0.37680349  0.99263081  1
  C  C296  1  0.62876529  0.34416299  0.02475943  1
  C  C297  1  0.61194179  0.39608881  0.03570944  1
  C  C298  1  0.58962815  0.36709913  0.02933763  1
  C  C299  1  0.56970665  0.37901119  0.02986135  1
  C  C300  1  0.57166545  0.41976727  0.03715745  1
  C  C301  1  0.59423878  0.44828531  0.04426440  1
  C  C302  1  0.61423465  0.43661340  0.04360354  1
  C  C303  1  0.55091839  0.43346946  0.03772377  1
  C  C304  1  0.52906670  0.40981776  0.03145949  1
  C  C305  1  0.70370657  0.36764766  0.98744043  1
  C  C306  1  0.71341979  0.35057982  0.95178045  1
  C  C307  1  0.72982316  0.38991842  0.95346934  1
  C  C308  1  0.74586488  0.39905046  0.93815189  1
  C  C309  1  0.74601168  0.36998615  0.92029021  1
  C  C310  1  0.72836895  0.33089402  0.91838643  1
  C  C311  1  0.71209603  0.32168976  0.93370164  1
  C  C312  1  0.76400495  0.38281962  0.90540395  1
  C  C313  1  0.76777768  0.36081555  0.88715413  1
  C  C314  1  0.29387085  0.74869365  0.93836183  1
  C  C315  1  0.29691321  0.71873495  0.94812966  1
  C  C316  1  0.31284790  0.72080719  0.96626582  1
  C  C317  1  0.30920715  0.68404365  0.97418077  1
  C  C318  1  0.32286079  0.68147121  0.99132130  1
  C  C319  1  0.34091290  0.71614560  0.00151275  1
  C  C320  1  0.34570701  0.75280169  0.99362867  1
  C  C321  1  0.33182594  0.75531170  0.97643204  1
  C  C322  1  0.34748698  0.67864712  0.02847991  1
  C  C323  1  0.36338821  0.68550770  0.04826726  1
  C  C324  1  0.38455496  0.67649539  0.04650903  1
  C  C325  1  0.39994327  0.68527532  0.06490681  1
  C  C326  1  0.39494200  0.70363914  0.08472301  1
  C  C327  1  0.37342174  0.71167013  0.08645834  1
  C  C328  1  0.35743175  0.70182106  0.06826239  1
  C  C329  1  0.33391909  0.70808490  0.06901963  1
  C  C330  1  0.39063615  0.65672281  0.02589616  1
  C  C331  1  0.41358341  0.71484143  0.10276538  1
  C  C332  1  0.42321766  0.67844625  0.06308917  1
  C  C333  1  0.46392085  0.71723084  0.06166175  1
  C  C334  1  0.46896091  0.68088556  0.05959911  1
  C  C335  1  0.49236471  0.68230631  0.06037674  1
  C  C336  1  0.51097343  0.71977292  0.06315359  1
  C  C337  1  0.50550223  0.75609790  0.06434797  1
  C  C338  1  0.48211900  0.75481849  0.06336823  1
  C  C339  1  0.53575909  0.72112109  0.06465747  1
  C  C340  1  0.54154102  0.68781922  0.06381176  1
  C  C341  1  0.36851155  0.73281003  0.10747463  1
  C  C342  1  0.34955877  0.71540309  0.13968258  1
  C  C343  1  0.35197430  0.75593048  0.14785119  1
  C  C344  1  0.33981412  0.76466870  0.16524281  1
  C  C345  1  0.32473461  0.73363207  0.17522765  1
  C  C346  1  0.32426945  0.69328225  0.16762392  1
  C  C347  1  0.33678366  0.68454616  0.15051153  1
  C  C348  1  0.31030352  0.74263764  0.19213076  1
  C  C349  1  0.29818236  0.71481452  0.20414344  1
  C  C350  1  0.91919741  0.53949423  0.82768000  1
  C  C351  1  0.90107858  0.51969894  0.83926699  1
  C  C352  1  0.88233405  0.48390770  0.83008452  1
  C  C353  1  0.88303114  0.46925201  0.80825321  1
  C  C354  1  0.90105483  0.48925054  0.79661213  1
  C  C355  1  0.91963464  0.52480437  0.80597994  1
  C  C356  1  0.86371902  0.46452571  0.84299838  1
  C  C357  1  0.84476608  0.42993727  0.83634079  1
  C  C358  1  0.82598489  0.41202321  0.84945603  1
  C  C359  1  0.80684601  0.37589342  0.84126023  1
  C  C360  1  0.78843815  0.35904211  0.85328160  1
  C  C361  1  0.78748725  0.37709723  0.87453985  1
  C  C362  1  0.80735312  0.41174215  0.88312478  1
  C  C363  1  0.82558086  0.42897649  0.87103233  1
  C  C364  1  0.92355322  0.41051660  0.24992469  1
  C  C365  1  0.90565770  0.39822187  0.23386609  1
  C  C366  1  0.88282270  0.39982905  0.23751253  1
  C  C367  1  0.87954558  0.41704208  0.25833922  1
  C  C368  1  0.89763255  0.43023667  0.27434192  1
  C  C369  1  0.92003854  0.42693580  0.27061110  1
  C  C370  1  0.86437865  0.38419804  0.22024604  1
  C  C371  1  0.84162177  0.38343340  0.22159952  1
  C  C372  1  0.82297052  0.36695389  0.20449785  1
  C  C373  1  0.80021598  0.36891064  0.20819346  1
  C  C374  1  0.78237862  0.35668583  0.19214093  1
  C  C375  1  0.78557014  0.34071341  0.17120880  1
  C  C376  1  0.80748803  0.33445328  0.16794485  1
  C  C377  1  0.82569742  0.34788831  0.18386040  1
  C  C378  1  0.16246682  0.58207280  0.81829478  1
  C  C379  1  0.18271038  0.59932422  0.83211507  1
  C  C380  1  0.18757360  0.63728500  0.84589627  1
  C  C381  1  0.17070589  0.65728318  0.84463702  1
  C  C382  1  0.15058166  0.64015061  0.83090178  1
  C  C383  1  0.14588187  0.60205520  0.81775092  1
  C  C384  1  0.20885577  0.65403994  0.86033185  1
  C  C385  1  0.21528173  0.69006681  0.87429567  1
  C  C386  1  0.23630262  0.70636866  0.88904254  1
  C  C387  1  0.24135026  0.74443736  0.90282677  1
  C  C388  1  0.26066198  0.75998214  0.91758397  1
  C  C389  1  0.27593675  0.73764623  0.92059879  1
  C  C390  1  0.27194951  0.70115165  0.90578405  1
  C  C391  1  0.25307103  0.68618607  0.89058643  1
  C  C392  1  0.16531008  0.60945174  0.30217582  1
  C  C393  1  0.18648326  0.62470232  0.29321866  1
  C  C394  1  0.18903965  0.65002951  0.27759697  1
  C  C395  1  0.16901407  0.66077232  0.27242727  1
  C  C396  1  0.14781555  0.64581512  0.28153089  1
  C  C397  1  0.14537804  0.61932969  0.29643049  1
  C  C398  1  0.21130825  0.66341803  0.26779243  1
  C  C399  1  0.21615403  0.68767378  0.25257313  1
  C  C400  1  0.23812509  0.69924261  0.24215273  1
  C  C401  1  0.24147359  0.72443168  0.22632112  1
  C  C402  1  0.26146485  0.73332157  0.21501415  1
  C  C403  1  0.27938397  0.71627196  0.21819765  1
  C  C404  1  0.27725340  0.69519091  0.23559226  1
  C  C405  1  0.25752306  0.68683068  0.24712817  1
  C  C406  1  0.53049621  0.57146397  0.05836821  1
  C  C407  1  0.53645371  0.53273724  0.05109212  1
  C  C408  1  0.51218717  0.53416813  0.04517784  1
  C  C409  1  0.04675429  0.32622788  0.70499989  1
  C  C410  1  0.06879144  0.31951127  0.70521687  1
  C  C411  1  0.08946009  0.35422837  0.71104297  1
  C  C412  1  0.08809187  0.39271233  0.71743722  1
  C  C413  1  0.07199394  0.17261523  0.68619393  1
  C  C414  1  0.04552974  0.36485680  0.71014182  1
  C  C415  1  0.06941880  0.27969041  0.69996396  1
  C  C416  1  0.06974693  0.24471886  0.69583965  1
  C  C417  1  0.07011901  0.20647680  0.69133320  1
  C  C418  1  0.06612876  0.39874834  0.71670005  1
  C  C419  1  0.06187763  0.86370605  0.70555138  1
  C  C420  1  0.04391226  0.87757518  0.69830445  1
  C  C421  1  0.02051910  0.84919728  0.69469776  1
  C  C422  1  0.01511450  0.81008716  0.69912122  1
  C  C423  1  0.06622068  0.02877061  0.68795438  1
  C  C424  1  0.05633930  0.82537006  0.71072852  1
  C  C425  1  0.04942365  0.91801694  0.69503049  1
  C  C426  1  0.05456508  0.95388431  0.69299431  1
  C  C427  1  0.06031011  0.99307748  0.69078393  1
  C  C428  1  0.03288310  0.79830730  0.70788385  1
  C  C429  1  0.08820974  0.79364206  0.39845089  1
  C  C430  1  0.06897587  0.80690313  0.39418213  1
  C  C431  1  0.04801878  0.77723946  0.38350996  1
  C  C432  1  0.04641956  0.73714257  0.37761524  1
  C  C433  1  0.07137470  0.95733927  0.41196881  1
  C  C434  1  0.08700193  0.75372412  0.39152160  1
  C  C435  1  0.06974398  0.84749683  0.39968293  1
  C  C436  1  0.06981121  0.88273238  0.40348321  1
  C  C437  1  0.06985672  0.92126295  0.40745294  1
  C  C438  1  0.06604686  0.72511086  0.38117888  1
  C  C439  1  0.05890810  0.26204200  0.40497603  1
  C  C440  1  0.04406279  0.22117949  0.39762233  1
  C  C441  1  0.02253089  0.21507510  0.38579914  1
  C  C442  1  0.01740000  0.24737699  0.37981590  1
  C  C443  1  0.06551757  0.09533108  0.41138482  1
  C  C444  1  0.05300259  0.29451750  0.40010376  1
  C  C445  1  0.04983885  0.18738188  0.40165511  1
  C  C446  1  0.05465031  0.15722811  0.40445567  1
  C  C447  1  0.05990538  0.12427221  0.40751334  1
  C  C448  1  0.03284369  0.28752048  0.38660317  1
  C  C449  1  0.08004430  0.05085002  0.54586054  1
  C  C450  1  0.08130936  0.05134210  0.52257414  1
  C  C451  1  0.06233061  0.02384087  0.50904524  1
  C  C452  1  0.06189788  0.02406015  0.48747259  1
  C  C453  1  0.08076508  0.05165734  0.47903611  1
  C  C454  1  0.09789930  0.08283347  0.49292647  1
  C  C455  1  0.09824418  0.08265316  0.51455978  1
  C  C456  1  0.10915293  0.04001776  0.56808982  1
  C  C457  1  0.06202448  0.07217314  0.55384528  1
  C  C458  1  0.06442211  0.07904246  0.57758523  1
  C  C459  1  0.08204122  0.11386674  0.58876504  1
  C  C460  1  0.08787707  0.11626376  0.61002980  1
  C  C461  1  0.07652406  0.08391941  0.62073331  1
  C  C462  1  0.05983389  0.04814584  0.60921374  1
  C  C463  1  0.05413940  0.04576695  0.58785813  1
  C  C464  1  0.04818696  0.12772819  0.55268160  1
  O  O465  1  0.04731785  0.54303002  0.75003188  1
  O  O466  1  0.06501089  0.61218546  0.78128089  1
  O  O467  1  0.02992891  0.66348796  0.74598731  1
  O  O468  1  0.99607318  0.57943822  0.75649288  1
  O  O469  1  0.04742995  0.55831486  0.34646374  1
  O  O470  1  0.06354096  0.50542694  0.31678235  1
  O  O471  1  0.02755230  0.41727404  0.34775552  1
  O  O472  1  0.99504499  0.46776564  0.33334251  1
  O  O473  1  0.70218120  0.32572515  0.06987959  1
  O  O474  1  0.69829260  0.33970362  0.96713801  1
  O  O475  1  0.63200894  0.38619880  0.03441639  1
  O  O476  1  0.35448380  0.71545339  0.01872610  1
  O  O477  1  0.35978343  0.70395563  0.12203961  1
  O  O478  1  0.44137602  0.71756852  0.06208449  1
  O  O479  1  0.10273471  0.06784076  0.55675476  1
  O  O480  1  0.06515424  0.10830566  0.54561450  1
