# generated using pymatgen
data_Fe3AgH117C189N3O22
_symmetry_space_group_name_H-M   'P 1'
_cell_length_a   60.83877774
_cell_length_b   64.41901312
_cell_length_c   29.79260475
_cell_angle_alpha   89.77179998
_cell_angle_beta   89.45461993
_cell_angle_gamma   122.08374514
_symmetry_Int_Tables_number   1
_chemical_formula_structural   Fe3AgH117C189N3O22
_chemical_formula_sum   'Fe3 Ag1 H117 C189 N3 O22'
_cell_volume   98919.47820310
_cell_formula_units_Z   1
loop_
 _symmetry_equiv_pos_site_id
 _symmetry_equiv_pos_as_xyz
  1  'x, y, z'
loop_
 _atom_site_type_symbol
 _atom_site_label
 _atom_site_symmetry_multiplicity
 _atom_site_fract_x
 _atom_site_fract_y
 _atom_site_fract_z
 _atom_site_occupancy
  Fe  Fe0  1  0.72173915  0.38550065  0.51689223  1
  Fe  Fe1  1  0.65815993  0.35693821  0.51592579  1
  Fe  Fe2  1  0.69342528  0.41697149  0.51789752  1
  Ag  Ag3  1  0.00317776  0.03057629  1.00650917  1
  H  H4  1  0.68994400  0.21788785  0.73993285  1
  H  H5  1  0.63095932  0.18590353  0.75926640  1
  H  H6  1  0.61846246  0.15175287  0.81378751  1
  H  H7  1  0.62922489  0.13488216  0.87788959  1
  H  H8  1  0.71000444  0.19177008  0.86249464  1
  H  H9  1  0.69943916  0.20981425  0.79972884  1
  H  H10  1  0.64689571  0.11920734  0.92536682  1
  H  H11  1  0.64454546  0.14284584  0.95074004  1
  H  H12  1  0.67150228  0.17908467  0.04790043  1
  H  H13  1  0.64375237  0.15487524  0.02226062  1
  H  H14  1  0.66980491  0.17749604  0.98878285  1
  H  H15  1  0.67539324  0.11316191  0.90787672  1
  H  H16  1  0.66426242  0.08730432  0.94373320  1
  H  H17  1  0.69755888  0.10617558  0.92918708  1
  H  H18  1  0.72503773  0.14977160  0.11491298  1
  H  H19  1  0.74108774  0.14319125  0.07253982  1
  H  H20  1  0.71416808  0.11920804  0.10203469  1
  H  H21  1  0.71113685  0.09874925  0.04381353  1
  H  H22  1  0.70258528  0.09291314  0.98640410  1
  H  H23  1  0.72254403  0.07666628  0.00773634  1
  H  H24  1  0.75115929  0.06102116  0.01425908  1
  H  H25  1  0.81802651  0.13431447  0.99308816  1
  H  H26  1  0.78875284  0.15024878  0.98852666  1
  H  H27  1  0.82466901  0.10086247  0.00323561  1
  H  H28  1  0.77605139  0.04835409  0.01881002  1
  H  H29  1  0.72000840  0.17631929  0.10297817  1
  H  H30  1  0.69708461  0.18377250  0.08750994  1
  H  H31  1  0.72038541  0.20007005  0.14808528  1
  H  H32  1  0.71709615  0.22592041  0.20467803  1
  H  H33  1  0.64475349  0.16333492  0.25375068  1
  H  H34  1  0.64761345  0.13784317  0.19468493  1
  H  H35  1  0.69786101  0.23249672  0.26294855  1
  H  H36  1  0.64560837  0.19195001  0.30571634  1
  H  H37  1  0.52050171  0.41368263  0.30255108  1
  H  H38  1  0.52332027  0.36921988  0.27115484  1
  H  H39  1  0.50333940  0.34643926  0.21259122  1
  H  H40  1  0.47374246  0.33347527  0.14905621  1
  H  H41  1  0.45986212  0.39137967  0.17648322  1
  H  H42  1  0.48913263  0.40419275  0.24172131  1
  H  H43  1  0.44150837  0.32078125  0.10932236  1
  H  H44  1  0.47037564  0.34442740  0.08276848  1
  H  H45  1  0.48406728  0.38091226  0.98514427  1
  H  H46  1  0.48475260  0.35672834  0.01148431  1
  H  H47  1  0.48381463  0.37909036  0.04432898  1
  H  H48  1  0.40633853  0.31233108  0.12627587  1
  H  H49  1  0.38998193  0.28695080  0.09002887  1
  H  H50  1  0.37595912  0.30400762  0.10529061  1
  H  H51  1  0.39730615  0.34974168  0.91855465  1
  H  H52  1  0.37322711  0.34251414  0.96063266  1
  H  H53  1  0.37443027  0.31899380  0.93277888  1
  H  H54  1  0.35447290  0.29868176  0.99195234  1
  H  H55  1  0.35677047  0.29337819  0.04987236  1
  H  H56  1  0.32046762  0.27605397  0.02934270  1
  H  H57  1  0.27395643  0.25686037  0.02841123  1
  H  H58  1  0.28271047  0.32811562  0.04030564  1
  H  H59  1  0.33033408  0.34716943  0.04582301  1
  H  H60  1  0.23608342  0.28696004  0.03256425  1
  H  H61  1  0.24451964  0.24692047  -0.00510083  1
  H  H62  1  0.43247212  0.37946580  0.93284509  1
  H  H63  1  0.46359877  0.38503605  0.94416886  1
  H  H64  1  0.45999424  0.40196825  0.87838594  1
  H  H65  1  0.49277977  0.42396752  0.81864440  1
  H  H66  1  0.49203174  0.35756534  0.79049077  1
  H  H67  1  0.45646680  0.33509471  0.84640610  1
  H  H68  1  0.52585737  0.42423979  0.76257513  1
  H  H69  1  0.50361914  0.37207569  0.72707425  1
  H  H70  1  0.87097004  0.56520938  0.73050035  1
  H  H71  1  0.90578776  0.54453369  0.74771731  1
  H  H72  1  0.94150911  0.56971675  0.80218274  1
  H  H73  1  0.95756135  0.59712427  0.86694447  1
  H  H74  1  0.89436102  0.60890913  0.85512765  1
  H  H75  1  0.87677130  0.57996970  0.79221082  1
  H  H76  1  0.97214569  0.62940858  0.91491904  1
  H  H77  1  0.94782246  0.60135267  0.94028860  1
  H  H78  1  0.90848307  0.58608958  0.03889699  1
  H  H79  1  0.93529695  0.58724587  0.01304880  1
  H  H80  1  0.91083831  0.58634147  0.97977945  1
  H  H81  1  0.97665954  0.66197288  0.89785597  1
  H  H82  1  1.00351415  0.68010810  0.93309122  1
  H  H83  1  0.98183594  0.68952176  0.91938173  1
  H  H84  1  0.93422387  0.66629777  0.10587530  1
  H  H85  1  0.93936186  0.68780793  0.06331130  1
  H  H86  1  0.96588475  0.69016833  0.09186021  1
  H  H87  1  0.98626421  0.70981186  0.03308193  1
  H  H88  1  0.99422643  0.70838967  0.97611449  1
  H  H89  1  0.00718506  0.74332129  -0.00313073  1
  H  H90  1  0.01938466  0.78565035  0.00655108  1
  H  H91  1  0.93973082  0.76438159  0.98407733  1
  H  H92  1  0.92710635  0.72082737  0.97850984  1
  H  H93  1  0.97296829  0.80757407  0.99520396  1
  H  H94  1  0.02964140  0.82066003  0.01148292  1
  H  H95  1  0.90732896  0.63302391  0.09306234  1
  H  H96  1  0.90234938  0.60413601  0.08029814  1
  H  H97  1  0.88430462  0.60964883  0.14099501  1
  H  H98  1  0.85808612  0.57843711  0.19848353  1
  H  H99  1  0.92692692  0.58157570  0.24558866  1
  H  H100  1  0.95276265  0.61188068  0.18541023  1
  H  H101  1  0.85262856  0.55405410  0.25643014  1
  H  H102  1  0.89725599  0.55110213  0.29901909  1
  H  H103  1  0.91641620  0.08490276  0.96111943  1
  H  H104  1  0.87279718  0.08472468  0.96271898  1
  H  H105  1  0.86216857  0.06545142  0.08962992  1
  H  H106  1  0.90552903  0.06528478  0.08925018  1
  H  H107  1  0.87863448  0.01634715  0.99170820  1
  H  H108  1  0.83483937  0.01579226  0.99168100  1
  H  H109  1  0.10777390  0.15493976  0.07465583  1
  H  H110  1  0.14878704  0.20019210  0.07772612  1
  H  H111  1  0.16032532  0.19764456  0.94449015  1
  H  H112  1  0.11860121  0.15275143  0.94327768  1
  H  H113  1  0.15211205  0.13279776  0.02874252  1
  H  H114  1  0.19266291  0.17837760  0.02925694  1
  H  H115  1  0.97596966  0.90217356  0.95542612  1
  H  H116  1  0.98329771  0.86521734  0.95626444  1
  H  H117  1  -0.00059346  0.87538167  0.08356525  1
  H  H118  1  0.99366351  0.91335539  0.08400840  1
  H  H119  1  0.04793046  0.94681632  0.99227524  1
  H  H120  1  0.05506242  0.90968532  0.99037152  1
  C  C121  1  0.06284848  0.08000594  0.01184176  1
  C  C122  1  0.99538662  0.97653836  0.00516317  1
  C  C123  1  0.96189370  0.04963434  0.01260323  1
  C  C124  1  0.67009366  0.21417143  0.74161936  1
  C  C125  1  0.65141751  0.19395421  0.76679685  1
  C  C126  1  0.65780895  0.18273325  0.80184077  1
  C  C127  1  0.63852919  0.16109832  0.82484496  1
  C  C128  1  0.64454492  0.15151856  0.86115663  1
  C  C129  1  0.67025606  0.16306290  0.87545861  1
  C  C130  1  0.68993738  0.18339808  0.85187756  1
  C  C131  1  0.68384689  0.19331451  0.81620862  1
  C  C132  1  0.65813430  0.13706755  0.94209913  1
  C  C133  1  0.67253152  0.13593473  0.98181937  1
  C  C134  1  0.68405332  0.12186895  0.97841997  1
  C  C135  1  0.69904958  0.12200233  0.01433049  1
  C  C136  1  0.70426228  0.13729022  0.05179590  1
  C  C137  1  0.69343938  0.15198656  0.05359713  1
  C  C138  1  0.67716858  0.15121619  0.01919399  1
  C  C139  1  0.66509443  0.16640372  0.01973417  1
  C  C140  1  0.68014906  0.10650432  0.93789418  1
  C  C141  1  0.72192766  0.13753134  0.08704428  1
  C  C142  1  0.71171978  0.10747277  0.01151240  1
  C  C143  1  0.75406580  0.11462223  -0.00044344  1
  C  C144  1  0.74346899  0.08949798  0.00571269  1
  C  C145  1  0.75970664  0.08058171  0.00847293  1
  C  C146  1  0.78701852  0.09645661  0.00417509  1
  C  C147  1  0.79710430  0.12181911  0.99661941  1
  C  C148  1  0.78087192  0.13076850  0.99413390  1
  C  C149  1  0.80392356  0.08741989  0.00704952  1
  C  C150  1  0.79631106  0.06312059  0.01430193  1
  C  C151  1  0.69962105  0.16831528  0.09334299  1
  C  C152  1  0.68294855  0.16787784  0.16562418  1
  C  C153  1  0.70324077  0.19229756  0.16982147  1
  C  C154  1  0.70178819  0.20662542  0.20260107  1
  C  C155  1  0.68064101  0.19704082  0.23349817  1
  C  C156  1  0.66115681  0.17168117  0.23026502  1
  C  C157  1  0.66259547  0.15725454  0.19709975  1
  C  C158  1  0.68096774  0.21385638  0.26546658  1
  C  C159  1  0.66282903  0.21004354  0.29876222  1
  C  C160  1  0.52675782  0.40069110  0.29959611  1
  C  C161  1  0.51648328  0.38177500  0.26832227  1
  C  C162  1  0.49887452  0.37632726  0.23214105  1
  C  C163  1  0.49382744  0.35632466  0.20479806  1
  C  C164  1  0.47754972  0.34931543  0.16853065  1
  C  C165  1  0.46593100  0.36243237  0.15788776  1
  C  C166  1  0.46968382  0.38181300  0.18480534  1
  C  C167  1  0.48609713  0.38887106  0.22139695  1
  C  C168  1  0.45021618  0.33847609  0.09142841  1
  C  C169  1  0.43456714  0.33688358  0.05179412  1
  C  C170  1  0.40732246  0.32203816  0.05585411  1
  C  C171  1  0.39243736  0.32246454  0.02039116  1
  C  C172  1  0.40422265  0.33804787  0.98267534  1
  C  C173  1  0.43148349  0.35373424  0.98071471  1
  C  C174  1  0.44704060  0.35275777  0.01449590  1
  C  C175  1  0.47620622  0.36811895  0.01363915  1
  C  C176  1  0.39437581  0.30567155  0.09617244  1
  C  C177  1  0.38665663  0.33748143  0.94689500  1
  C  C178  1  0.36355033  0.30767334  0.02382705  1
  C  C179  1  0.32837705  0.31302912  0.03550584  1
  C  C180  1  0.31243134  0.28766778  0.03066785  1
  C  C181  1  0.28587118  0.27682462  0.02875600  1
  C  C182  1  0.27435574  0.29104560  0.03032476  1
  C  C183  1  0.29098410  0.31673329  0.03746525  1
  C  C184  1  0.31765099  0.32751443  0.04036539  1
  C  C185  1  0.24677929  0.27799905  0.02641628  1
  C  C186  1  0.23393918  0.25371711  0.01342942  1
  C  C187  1  0.44313091  0.37039290  0.94060137  1
  C  C188  1  0.45777820  0.36763879  0.86769396  1
  C  C189  1  0.46734288  0.39245801  0.85920458  1
  C  C190  1  0.48555795  0.40468681  0.82520654  1
  C  C191  1  0.49489280  0.39246301  0.79887971  1
  C  C192  1  0.48419172  0.36712831  0.80790313  1
  C  C193  1  0.46489707  0.35462731  0.84029150  1
  C  C194  1  0.51496051  0.40431115  0.76547330  1
  C  C195  1  0.51987024  0.39048090  0.73568213  1
  C  C196  1  0.87510742  0.55054520  0.73198168  1
  C  C197  1  0.89653627  0.55459269  0.75635848  1
  C  C198  1  0.90745496  0.57204999  0.79191841  1
  C  C199  1  0.93060569  0.57769512  0.81412283  1
  C  C200  1  0.93971914  0.59314893  0.85077869  1
  C  C201  1  0.92617320  0.60383387  0.86615469  1
  C  C202  1  0.90426442  0.59987879  0.84353502  1
  C  C203  1  0.89472270  0.58388066  0.80766203  1
  C  C204  1  0.95309730  0.62015094  0.93216929  1
  C  C205  1  0.95318798  0.63420474  0.97228680  1
  C  C206  1  0.96674360  0.65999688  0.96872994  1
  C  C207  1  0.96519650  0.67330138  0.00470236  1
  C  C208  1  0.94882222  0.66132834  0.04223216  1
  C  C209  1  0.93458987  0.63549414  0.04405938  1
  C  C210  1  0.93684515  0.62162239  0.00974209  1
  C  C211  1  0.92214650  0.59409930  0.01056842  1
  C  C212  1  0.98285441  0.67342659  0.92784712  1
  C  C213  1  0.94683930  0.67693184  0.07751415  1
  C  C214  1  0.97827887  0.70047073  0.00097465  1
  C  C215  1  0.96620408  0.72949830  0.98885035  1
  C  C216  1  0.99220230  0.74771761  0.99558484  1
  C  C217  1  0.99918992  0.77179514  -0.00019696  1
  C  C218  1  0.98050908  0.77845545  0.99558545  1
  C  C219  1  0.95431391  0.75955732  0.98743370  1
  C  C220  1  0.94722769  0.73534347  0.98415260  1
  C  C221  1  0.98805474  0.80340998  0.99918720  1
  C  C222  1  0.01318084  0.82282469  0.00727436  1
  C  C223  1  0.91746109  0.62356542  0.08433138  1
  C  C224  1  0.91964402  0.61083076  0.15746455  1
  C  C225  1  0.89335847  0.60263736  0.16254374  1
  C  C226  1  0.87883658  0.58575021  0.19580415  1
  C  C227  1  0.89009734  0.57717621  0.22634787  1
  C  C228  1  0.91731221  0.58725154  0.22235028  1
  C  C229  1  0.93194638  0.60425501  0.18866128  1
  C  C230  1  0.87278838  0.55915803  0.25874598  1
  C  C231  1  0.87771734  0.54700224  0.29226316  1
  C  C232  1  0.68672558  0.34061967  0.57320820  1
  C  C233  1  0.73826633  0.43025248  0.45834311  1
  C  C234  1  0.64601547  0.38748146  0.46014032  1
  C  C235  1  0.64504158  0.38693275  0.57366684  1
  C  C236  1  0.74056054  0.43105271  0.57148195  1
  C  C237  1  0.68972707  0.34258489  0.45957968  1
  C  C238  1  0.66564039  0.22955213  0.71685134  1
  C  C239  1  0.66750549  0.24656107  0.69382566  1
  C  C240  1  0.67127978  0.26547068  0.66925488  1
  C  C241  1  0.67566174  0.28344887  0.64651120  1
  C  C242  1  0.67983029  0.30261972  0.62195102  1
  C  C243  1  0.68339310  0.32016364  0.59936206  1
  C  C244  1  0.54513532  0.40286373  0.32858226  1
  C  C245  1  0.56123848  0.40062938  0.34985622  1
  C  C246  1  0.57804631  0.39704939  0.37110836  1
  C  C247  1  0.59370508  0.39367735  0.39089629  1
  C  C248  1  0.61092556  0.39107751  0.41350574  1
  C  C249  1  0.62693878  0.38907147  0.43458768  1
  C  C250  1  0.54309780  0.39810494  0.71464089  1
  C  C251  1  0.56092675  0.39862099  0.69287314  1
  C  C252  1  0.57823167  0.39669626  0.66886785  1
  C  C253  1  0.59348085  0.39364967  0.64630952  1
  C  C254  1  0.61031707  0.39097878  0.62198402  1
  C  C255  1  0.62597007  0.38874657  0.59959587  1
  C  C256  1  0.85756277  0.52949519  0.31828003  1
  C  C257  1  0.83868443  0.51378599  0.34075361  1
  C  C258  1  0.81774812  0.49721712  0.36369905  1
  C  C259  1  0.79821870  0.48178817  0.38506513  1
  C  C260  1  0.77795116  0.46476888  0.40918491  1
  C  C261  1  0.75949202  0.44900050  0.43152243  1
  C  C262  1  0.85907821  0.52998977  0.70762222  1
  C  C263  1  0.84116138  0.51360657  0.68523903  1
  C  C264  1  0.82111567  0.49700664  0.66159447  1
  C  C265  1  0.80200884  0.48193347  0.63986217  1
  C  C266  1  0.78152763  0.46526299  0.61676302  1
  C  C267  1  0.76271674  0.44982513  0.59555015  1
  C  C268  1  0.66652823  0.22933866  0.32422025  1
  C  C269  1  0.67048048  0.24727922  0.34623745  1
  C  C270  1  0.67567618  0.26713392  0.36865510  1
  C  C271  1  0.68062927  0.28569642  0.38946783  1
  C  C272  1  0.68444677  0.30501485  0.41262720  1
  C  C273  1  0.68733890  0.32249692  0.43409513  1
  C  C274  1  0.89940686  0.05561247  0.01552475  1
  C  C275  1  0.89963898  0.07393481  0.98317809  1
  C  C276  1  0.87741109  0.07361216  0.98362203  1
  C  C277  1  0.85717854  0.05486828  0.01630137  1
  C  C278  1  0.87046590  0.06103411  0.06136854  1
  C  C279  1  0.89267623  0.06136854  0.06095091  1
  C  C280  1  0.87602663  0.03114124  0.00211217  1
  C  C281  1  0.85377924  0.03073713  0.00251660  1
  C  C282  1  0.92312207  0.05540300  0.01509119  1
  C  C283  1  0.94207387  0.05379311  0.01427807  1
  C  C284  1  0.83323945  0.05445571  0.01687441  1
  C  C285  1  0.81417979  0.05623729  0.01625521  1
  C  C286  1  0.12654832  0.14793753  0.01549373  1
  C  C287  1  0.12450807  0.16326677  0.05180617  1
  C  C288  1  0.14497286  0.18633739  0.05283924  1
  C  C289  1  0.16533075  0.19170722  0.01745854  1
  C  C290  1  0.15167757  0.18493912  0.97283431  1
  C  C291  1  0.13106745  0.16192820  0.97188822  1
  C  C292  1  0.15191835  0.14951276  0.02400704  1
  C  C293  1  0.17240468  0.17262098  0.02479302  1
  C  C294  1  0.10425107  0.12309975  0.01444345  1
  C  C295  1  0.08516096  0.10261329  0.01338510  1
  C  C296  1  0.18749396  0.21652008  0.01860008  1
  C  C297  1  0.20753976  0.23681680  0.01892235  1
  C  C298  1  0.00568048  0.91985951  0.01056045  1
  C  C299  1  0.98902491  0.90007891  0.97715287  1
  C  C300  1  0.99283119  0.88141018  0.97744978  1
  C  C301  1  0.01296019  0.88455271  0.01105781  1
  C  C302  1  0.00337798  0.88806467  0.05580355  1
  C  C303  1  -0.00026859  0.90683304  0.05560301  1
  C  C304  1  0.03340711  0.92758830  -0.00063640  1
  C  C305  1  0.03721143  0.90892593  -0.00068679  1
  C  C306  1  0.00169738  0.94011397  0.00984488  1
  C  C307  1  0.99858498  0.95716488  0.00813761  1
  C  C308  1  0.01713535  0.86454060  0.01122770  1
  C  C309  1  0.01893399  0.84650005  0.01042841  1
  N  N310  1  0.04328363  0.06086307  0.01032190  1
  N  N311  1  0.99273877  0.99328930  1.00212415  1
  N  N312  1  0.97831390  0.04521156  0.01086555  1
  O  O313  1  0.67778517  0.15492976  0.91078945  1
  O  O314  1  0.68280342  0.15406296  0.13110071  1
  O  O315  1  0.73887502  0.12423532  0.99865228  1
  O  O316  1  0.45054848  0.35654112  0.12153077  1
  O  O317  1  0.44125517  0.35535735  0.90267786  1
  O  O318  1  0.35458122  0.32399202  0.03557646  1
  O  O319  1  0.93384533  0.61914313  0.90182221  1
  O  O320  1  0.93354051  0.62530170  0.12189299  1
  O  O321  1  0.95869013  0.70558194  0.98682812  1
  O  O322  1  0.70972111  0.35799427  0.56267318  1
  O  O323  1  0.66587368  0.33987133  0.56275019  1
  O  O324  1  0.71974478  0.43343640  0.46859823  1
  O  O325  1  0.73940081  0.41167953  0.46979898  1
  O  O326  1  0.66564416  0.40771551  0.47341620  1
  O  O327  1  0.64219530  0.36620769  0.46770073  1
  O  O328  1  0.69116882  0.38644169  0.51787430  1
  O  O329  1  0.63931003  0.36575362  0.56055902  1
  O  O330  1  0.66676363  0.40701287  0.56598327  1
  O  O331  1  0.74022648  0.41142717  0.56241648  1
  O  O332  1  0.72267221  0.43499229  0.56133559  1
  O  O333  1  0.66859825  0.34140448  0.46993918  1
  O  O334  1  0.71250570  0.36018681  0.46982861  1
