# generated using pymatgen
data_SiH198C252(NO3)4
_symmetry_space_group_name_H-M   'P 1'
_cell_length_a   37.03513553
_cell_length_b   35.22237605
_cell_length_c   57.04631821
_cell_angle_alpha   89.49788296
_cell_angle_beta   91.25391693
_cell_angle_gamma   89.95361421
_symmetry_Int_Tables_number   1
_chemical_formula_structural   SiH198C252(NO3)4
_chemical_formula_sum   'Si1 H198 C252 N4 O12'
_cell_volume   74394.23825094
_cell_formula_units_Z   1
loop_
 _symmetry_equiv_pos_site_id
 _symmetry_equiv_pos_as_xyz
  1  'x, y, z'
loop_
 _atom_site_type_symbol
 _atom_site_label
 _atom_site_symmetry_multiplicity
 _atom_site_fract_x
 _atom_site_fract_y
 _atom_site_fract_z
 _atom_site_occupancy
  Si  Si0  1  0.53266532  0.53641088  0.51259149  1
  H  H1  1  0.96513837  0.04296872  0.02407966  1
  H  H2  1  0.07999934  0.02976361  0.02124511  1
  H  H3  1  0.02794596  0.09947822  0.98918014  1
  H  H4  1  0.01958317  0.97796932  0.99246387  1
  H  H5  1  0.02718107  0.02842775  0.08803793  1
  H  H6  1  0.02398729  0.03541312  0.92558459  1
  H  H7  1  0.66619398  0.54784121  0.56614964  1
  H  H8  1  0.52649522  0.66500484  0.44841595  1
  H  H9  1  0.48824020  0.55968091  0.47648144  1
  H  H10  1  0.52673302  0.41362534  0.44498293  1
  H  H11  1  0.40779643  0.53761858  0.57235203  1
  H  H12  1  0.58985362  0.60636302  0.50178561  1
  H  H13  1  0.47373434  0.46613422  0.50301783  1
  H  H14  1  0.57264795  0.51316706  0.47580450  1
  H  H15  1  0.50878546  0.49366561  0.54954100  1
  H  H16  1  0.46675844  0.59892975  0.51984007  1
  H  H17  1  0.60352224  0.47912845  0.51900956  1
  H  H18  1  0.55504072  0.57582046  0.55259436  1
  H  H19  1  0.83368247  0.45784746  0.64923149  1
  H  H20  1  0.83356491  0.37518851  0.63141458  1
  H  H21  1  0.88136500  0.33408136  0.64083246  1
  H  H22  1  0.94182172  0.31990924  0.65694384  1
  H  H23  1  0.94954359  0.43349843  0.68394310  1
  H  H24  1  0.88909947  0.44846624  0.66729470  1
  H  H25  1  0.00081220  0.32137293  0.66373143  1
  H  H26  1  0.97674752  0.31134038  0.68957741  1
  H  H27  1  0.00075745  0.31146398  0.75068606  1
  H  H28  1  0.98967548  0.28371245  0.72599205  1
  H  H29  1  0.97648128  0.33210213  0.72677779  1
  H  H30  1  0.03787277  0.35328035  0.65035100  1
  H  H31  1  0.07391005  0.32042416  0.64849299  1
  H  H32  1  0.08255665  0.36931339  0.65269923  1
  H  H33  1  0.13227182  0.33897666  0.75325986  1
  H  H34  1  0.14341761  0.37250174  0.73121331  1
  H  H35  1  0.15487843  0.32419012  0.72814245  1
  H  H36  1  0.15440037  0.33969094  0.69181457  1
  H  H37  1  0.12788631  0.35087097  0.66631642  1
  H  H38  1  0.17832236  0.36070151  0.66137476  1
  H  H39  1  0.23504215  0.38658524  0.64882711  1
  H  H40  1  0.21531119  0.48948908  0.68845617  1
  H  H41  1  0.15616363  0.46272925  0.70050992  1
  H  H42  1  0.27411145  0.48060590  0.66562700  1
  H  H43  1  0.28135556  0.39828184  0.64656477  1
  H  H44  1  0.08505207  0.34556456  0.76733987  1
  H  H45  1  0.04095567  0.32663964  0.76774130  1
  H  H46  1  0.06982826  0.33222944  0.80252269  1
  H  H47  1  0.05658613  0.30988689  0.84228648  1
  H  H48  1  0.07443923  0.19402165  0.82034129  1
  H  H49  1  0.08772894  0.21706510  0.78083020  1
  H  H50  1  0.04727212  0.25977174  0.87070851  1
  H  H51  1  0.07227425  0.18088998  0.85436572  1
  H  H52  1  0.63503517  0.82783390  0.36618441  1
  H  H53  1  0.69759820  0.84656572  0.40110480  1
  H  H54  1  0.73663044  0.89663536  0.39367215  1
  H  H55  1  0.75840068  0.95036673  0.37037963  1
  H  H56  1  0.67384972  0.93103367  0.31881139  1
  H  H57  1  0.65181724  0.87663607  0.34196175  1
  H  H58  1  0.78171410  0.98403190  0.33984670  1
  H  H59  1  0.74891502  0.00853445  0.35608491  1
  H  H60  1  0.69621878  0.09112697  0.34719713  1
  H  H61  1  0.73214901  0.06904327  0.36271705  1
  H  H62  1  0.69786465  0.04110133  0.34932056  1
  H  H63  1  0.79621880  0.97188545  0.30773107  1
  H  H64  1  0.83235931  0.00442298  0.30496794  1
  H  H65  1  0.80750816  0.98929493  0.27986545  1
  H  H66  1  0.73889903  0.14661067  0.27280447  1
  H  H67  1  0.74958134  0.11184298  0.25179841  1
  H  H68  1  0.78420557  0.13563196  0.26755178  1
  H  H69  1  0.81508002  0.08592095  0.25983863  1
  H  H70  1  0.82184623  0.03629418  0.26413407  1
  H  H71  1  0.84799588  0.05852032  0.23534941  1
  H  H72  1  0.87469653  0.06270825  0.19710865  1
  H  H73  1  0.76940035  0.04700705  0.16409155  1
  H  H74  1  0.74219618  0.04358020  0.20342541  1
  H  H75  1  0.82101305  0.05368432  0.13937026  1
  H  H76  1  0.89459979  0.06974264  0.16420823  1
  H  H77  1  0.69930915  0.13626450  0.29284132  1
  H  H78  1  0.68829054  0.12308510  0.32174989  1
  H  H79  1  0.66525208  0.17446183  0.30675083  1
  H  H80  1  0.62847093  0.22260227  0.32630688  1
  H  H81  1  0.72292316  0.25691213  0.36743805  1
  H  H82  1  0.75876955  0.20713090  0.34855320  1
  H  H83  1  0.62314913  0.27459578  0.35369161  1
  H  H84  1  0.69435500  0.29534202  0.38074762  1
  H  H85  1  0.79523891  0.69422710  0.63466640  1
  H  H86  1  0.78698358  0.62790195  0.67054643  1
  H  H87  1  0.83657776  0.61888450  0.69849945  1
  H  H88  1  0.89844333  0.63326361  0.71232757  1
  H  H89  1  0.90752926  0.71945556  0.65827991  1
  H  H90  1  0.84621682  0.70398695  0.64339044  1
  H  H91  1  0.95608758  0.63917521  0.71270210  1
  H  H92  1  0.93283260  0.67416241  0.72868427  1
  H  H93  1  0.95366611  0.76251511  0.75293566  1
  H  H94  1  0.94395612  0.71433829  0.75813338  1
  H  H95  1  0.92988781  0.73635556  0.73142822  1
  H  H96  1  0.99109965  0.63532182  0.68727148  1
  H  H97  1  0.02698590  0.61757149  0.70517889  1
  H  H98  1  0.03583205  0.64335417  0.67909179  1
  H  H99  1  0.08361580  0.78038599  0.73672364  1
  H  H100  1  0.09598047  0.76221208  0.70902753  1
  H  H101  1  0.10722235  0.73714708  0.73516610  1
  H  H102  1  0.10834048  0.68876168  0.71123537  1
  H  H103  1  0.08266909  0.65752411  0.69311165  1
  H  H104  1  0.13992321  0.65351139  0.68720311  1
  H  H105  1  0.19625844  0.64419953  0.66668005  1
  H  H106  1  0.17085140  0.74046927  0.62177502  1
  H  H107  1  0.11386845  0.74967697  0.64277752  1
  H  H108  1  0.22536258  0.70662126  0.61461645  1
  H  H109  1  0.24578868  0.63794005  0.64649354  1
  H  H110  1  0.03649773  0.80295009  0.74086390  1
  H  H111  1  0.99246579  0.79384887  0.75066795  1
  H  H112  1  0.01723284  0.84567417  0.76346073  1
  H  H113  1  0.00197560  0.89236055  0.79341909  1
  H  H114  1  0.02840866  0.80964871  0.84764093  1
  H  H115  1  0.03836606  0.76133079  0.81734921  1
  H  H116  1  1.00007141  0.91127590  0.83460901  1
  H  H117  1  -0.00320402  0.84340264  0.86884846  1
  H  H118  1  0.41253839  0.78016895  0.35168533  1
  H  H119  1  0.34180442  0.77176604  0.37974076  1
  H  H120  1  0.29840035  0.82446218  0.37424694  1
  H  H121  1  0.28471387  0.88934337  0.36020802  1
  H  H122  1  0.39168197  0.89850250  0.33168857  1
  H  H123  1  0.40689511  0.83462987  0.34736915  1
  H  H124  1  0.28532884  0.94866526  0.35454743  1
  H  H125  1  0.27633993  0.92305974  0.32840520  1
  H  H126  1  0.27669268  0.94501868  0.26794477  1
  H  H127  1  0.25128056  0.93370297  0.29275540  1
  H  H128  1  0.29741166  0.92070024  0.29183349  1
  H  H129  1  0.32102218  0.98483080  0.36708647  1
  H  H130  1  0.28919369  0.02185688  0.37016647  1
  H  H131  1  0.33549861  0.03212076  0.36609924  1
  H  H132  1  0.30505952  0.08272623  0.26501546  1
  H  H133  1  0.33792429  0.09558782  0.28671341  1
  H  H134  1  0.29196134  0.10731358  0.29016315  1
  H  H135  1  0.30614546  0.10816030  0.32765496  1
  H  H136  1  0.32016042  0.08070684  0.35258093  1
  H  H137  1  0.32688410  0.13844473  0.35847318  1
  H  H138  1  0.35127395  0.19792067  0.37310611  1
  H  H139  1  0.44947800  0.17875018  0.33513484  1
  H  H140  1  0.42438270  0.11802252  0.32061183  1
  H  H141  1  0.44588395  0.23491497  0.36006874  1
  H  H142  1  0.37305682  0.24884771  0.38424800  1
  H  H143  1  0.31003247  0.03286360  0.25080619  1
  H  H144  1  0.29216646  0.98643838  0.25124739  1
  H  H145  1  0.29658992  0.01447311  0.21699741  1
  H  H146  1  0.27427164  -0.00049793  0.17730300  1
  H  H147  1  0.16478017  0.02116054  0.19912385  1
  H  H148  1  0.18739487  0.03353251  0.23900645  1
  H  H149  1  0.22652057  0.99404828  0.14837584  1
  H  H150  1  0.14982626  0.00395937  0.16785136  1
  H  H151  1  0.96857305  0.02393409  0.10350461  1
  H  H152  1  0.93417475  0.03600561  0.05699041  1
  H  H153  1  0.95188500  0.99124429  0.06582545  1
  H  H154  1  0.91809822  0.08039120  0.08263472  1
  H  H155  1  0.96342590  0.08908091  0.09232364  1
  H  H156  1  0.94623279  0.07516580  0.13382730  1
  H  H157  1  0.91873088  0.11146894  0.12149327  1
  H  H158  1  0.86984706  0.06402984  0.11287733  1
  H  H159  1  0.92219428  0.00680208  0.13666703  1
  H  H160  1  0.87812587  -0.00391714  0.12630601  1
  H  H161  1  0.92335616  0.97695690  0.09724657  1
  H  H162  1  0.89397634  0.01297240  0.08566430  1
  H  H163  1  0.05443755  0.13970868  0.94143538  1
  H  H164  1  -0.01380457  0.10029991  0.93004383  1
  H  H165  1  0.99397990  0.12572494  0.95659695  1
  H  H166  1  0.02201614  0.10469745  0.89936025  1
  H  H167  1  0.06379525  0.09238302  0.91373526  1
  H  H168  1  0.09008844  0.15462835  0.90168664  1
  H  H169  1  0.07359654  0.12918859  0.87715534  1
  H  H170  1  0.01566819  0.16857717  0.87818725  1
  H  H171  1  0.05686950  0.20985730  0.91770357  1
  H  H172  1  0.01417032  0.22323261  0.90599812  1
  H  H173  1  0.00729677  0.18400476  0.94246223  1
  H  H174  1  0.98675372  0.16263512  0.91735784  1
  H  H175  1  0.11434390  0.04858862  0.08773065  1
  H  H176  1  0.09248288  0.97728940  0.06452299  1
  H  H177  1  0.11419918  0.01550128  0.05020810  1
  H  H178  1  0.08946583  0.97368987  0.10459372  1
  H  H179  1  0.06746017  0.01823730  0.10852409  1
  H  H180  1  0.11619279  0.04206399  0.13331375  1
  H  H181  1  0.09963584  0.99871111  0.14455237  1
  H  H182  1  0.15219112  0.96386643  0.12815076  1
  H  H183  1  0.17892172  0.04143640  0.11072297  1
  H  H184  1  0.19971334  0.99693996  0.10671692  1
  H  H185  1  0.16452580  0.01757794  0.07090458  1
  H  H186  1  0.14884460  0.97369325  0.08262451  1
  H  H187  1  0.98063293  0.95203217  0.92919203  1
  H  H188  1  0.05738882  0.95786826  0.94369193  1
  H  H189  1  0.02334672  0.94147472  0.96256641  1
  H  H190  1  0.04924576  0.95982415  0.90439703  1
  H  H191  1  0.01174340  0.99169963  0.90313600  1
  H  H192  1  0.97426756  0.94450669  0.88177496  1
  H  H193  1  0.01482837  0.95359124  0.86703920  1
  H  H194  1  0.04246743  0.89519983  0.88606261  1
  H  H195  1  0.96683103  0.88601115  0.90657740  1
  H  H196  1  0.00190425  0.85222285  0.90969914  1
  H  H197  1  -0.00024748  0.89321780  0.94488320  1
  H  H198  1  0.04141628  0.89800268  0.93009494  1
  C  C199  1  0.99117188  0.03891076  0.03304606  1
  C  C200  1  0.02263962  0.03828339  0.02007931  1
  C  C201  1  0.05571049  0.03158372  0.03163624  1
  C  C202  1  0.05813971  0.02597271  0.05584621  1
  C  C203  1  0.02619128  0.02880186  0.06893527  1
  C  C204  1  0.99238774  0.03308565  0.05732692  1
  C  C205  1  0.02220208  0.03897229  0.99352110  1
  C  C206  1  0.02480793  0.07229187  0.98033556  1
  C  C207  1  0.02091149  0.07146332  0.95586439  1
  C  C208  1  0.02240055  0.03598939  0.94460448  1
  C  C209  1  0.02210340  0.00174774  0.95762844  1
  C  C210  1  0.02081502  0.00398930  0.98199773  1
  C  C211  1  0.61098834  0.56527768  0.56022884  1
  C  C212  1  0.50459203  0.61238361  0.46136836  1
  C  C213  1  0.50900419  0.58146465  0.47681316  1
  C  C214  1  0.53848008  0.57990372  0.49222702  1
  C  C215  1  0.56653673  0.60728508  0.48988640  1
  C  C216  1  0.56373194  0.63650713  0.47256356  1
  C  C217  1  0.53100935  0.64038350  0.45993943  1
  C  C218  1  0.49454381  0.43911644  0.47188905  1
  C  C219  1  0.49505813  0.46641542  0.49022888  1
  C  C220  1  0.52384731  0.49328472  0.49241787  1
  C  C221  1  0.55159289  0.49175409  0.47651342  1
  C  C222  1  0.55359800  0.46147890  0.46081271  1
  C  C223  1  0.52509658  0.43601847  0.45808547  1
  C  C224  1  0.43598639  0.57444199  0.54832162  1
  C  C225  1  0.43145618  0.54114123  0.56140976  1
  C  C226  1  0.45735773  0.51241521  0.56113500  1
  C  C227  1  0.48829003  0.51560864  0.54757831  1
  C  C228  1  0.49112013  0.54551438  0.53176828  1
  C  C229  1  0.46491691  0.57545756  0.53225096  1
  C  C230  1  0.64011634  0.54069558  0.55797136  1
  C  C231  1  0.63501185  0.50564436  0.54712931  1
  C  C232  1  0.60443230  0.50192365  0.53171094  1
  C  C233  1  0.57589573  0.52935738  0.53197436  1
  C  C234  1  0.57787436  0.55777480  0.54869216  1
  C  C235  1  0.82610908  0.43390283  0.63796129  1
  C  C236  1  0.84564437  0.39994184  0.63985424  1
  C  C237  1  0.88025854  0.39291506  0.65155852  1
  C  C238  1  0.89618409  0.35633313  0.65004051  1
  C  C239  1  0.93013415  0.34794646  0.65959983  1
  C  C240  1  0.94933954  0.37561670  0.67202027  1
  C  C241  1  0.93435107  0.41186845  0.67434795  1
  C  C242  1  0.90037379  0.42029177  0.66458688  1
  C  C243  1  -0.00297438  0.33036210  0.68196775  1
  C  C244  1  0.03226309  0.33008622  0.69563091  1
  C  C245  1  0.06414493  0.33931538  0.68382255  1
  C  C246  1  0.09658393  0.34137018  0.69711458  1
  C  C247  1  0.09798734  0.33680798  0.72174360  1
  C  C248  1  0.06579623  0.32771580  0.73325085  1
  C  C249  1  0.03310962  0.32337788  0.72023505  1
  C  C250  1  -0.00154008  0.31223345  0.73154593  1
  C  C251  1  0.06456417  0.34593068  0.65771213  1
  C  C252  1  0.13359069  0.34336516  0.73428339  1
  C  C253  1  0.12979544  0.35445216  0.68539139  1
  C  C254  1  0.16474602  0.40979444  0.68252829  1
  C  C255  1  0.18654135  0.38854671  0.66776304  1
  C  C256  1  0.21898890  0.40319964  0.66083491  1
  C  C257  1  0.23048421  0.43944531  0.66872915  1
  C  C258  1  0.20710997  0.46117353  0.68291299  1
  C  C259  1  0.17426767  0.44647754  0.68959020  1
  C  C260  1  0.26441390  0.45223722  0.66122524  1
  C  C261  1  0.28587974  0.42896757  0.64755981  1
  C  C262  1  0.06734360  0.32365175  0.75953121  1
  C  C263  1  0.07706474  0.27562866  0.78872286  1
  C  C264  1  0.06964552  0.30182779  0.80627229  1
  C  C265  1  0.06292534  0.28914368  0.82890416  1
  C  C266  1  0.06398696  0.25012860  0.83505126  1
  C  C267  1  0.07333253  0.22449863  0.81699808  1
  C  C268  1  0.08054371  0.23719803  0.79439879  1
  C  C269  1  0.05513131  0.23743769  0.85866733  1
  C  C270  1  0.05894786  0.20075532  0.86602848  1
  C  C271  1  0.65187431  0.82584499  0.38222354  1
  C  C272  1  0.68089716  0.85082758  0.38530903  1
  C  C273  1  0.69207006  0.88195708  0.37028581  1
  C  C274  1  0.72242420  0.90403369  0.37734069  1
  C  C275  1  0.73468086  0.93467540  0.36424770  1
  C  C276  1  0.71696605  0.94470681  0.34323442  1
  C  C277  1  0.68732469  0.92329462  0.33537990  1
  C  C278  1  0.67501043  0.89260534  0.34859578  1
  C  C279  1  0.75600652  -0.00031653  0.33829373  1
  C  C280  1  0.75826709  0.03274121  0.32147187  1
  C  C281  1  0.77983168  0.03025442  0.30138119  1
  C  C282  1  0.77920512  0.06029878  0.28479558  1
  C  C283  1  0.75668170  0.09219135  0.28765084  1
  C  C284  1  0.73447812  0.09323473  0.30738381  1
  C  C285  1  0.73596227  0.06477868  0.32494868  1
  C  C286  1  0.71448492  0.06671604  0.34697084  1
  C  C287  1  0.80499263  -0.00263826  0.29830153  1
  C  C288  1  0.75713485  0.12300214  0.26920240  1
  C  C289  1  0.80123744  0.05870445  0.26313293  1
  C  C290  1  0.79310197  0.05192283  0.22182123  1
  C  C291  1  0.83034231  0.05675928  0.21986449  1
  C  C292  1  0.84557500  0.05875272  0.19789768  1
  C  C293  1  0.82420689  0.05563736  0.17712624  1
  C  C294  1  0.78656659  0.04987121  0.17973890  1
  C  C295  1  0.77117654  0.04798607  0.20171975  1
  C  C296  1  0.84005996  0.05732659  0.15408669  1
  C  C297  1  0.87541113  0.06429532  0.14979367  1
  C  C298  1  0.71097376  0.12723022  0.30992809  1
  C  C299  1  0.71363136  0.18687224  0.32767583  1
  C  C300  1  0.67737863  0.19178730  0.32054438  1
  C  C301  1  0.65702877  0.21933338  0.33098832  1
  C  C302  1  0.67272225  0.24353832  0.34813996  1
  C  C303  1  0.71001380  0.23893331  0.35425640  1
  C  C304  1  0.73033623  0.21114769  0.34374161  1
  C  C305  1  0.65158063  0.27167156  0.35883911  1
  C  C306  1  0.66564148  0.29612731  0.37572723  1
  C  C307  1  0.78483200  0.66780831  0.64216862  1
  C  C308  1  0.80155149  0.65054121  0.66162662  1
  C  C309  1  0.83653360  0.66024859  0.67004971  1
  C  C310  1  0.85210627  0.64092979  0.68975322  1
  C  C311  1  0.88657383  0.64935991  0.69767938  1
  C  C312  1  0.90606286  0.67784498  0.68623887  1
  C  C313  1  0.89159347  0.69748633  0.66680499  1
  C  C314  1  0.85719797  0.68880581  0.65866657  1
  C  C315  1  0.95315477  0.66998116  0.71515223  1
  C  C316  1  0.98808293  0.68948260  0.72047231  1
  C  C317  1  0.01899507  0.67791524  0.70834011  1
  C  C318  1  0.05083860  0.69962171  0.71063167  1
  C  C319  1  0.05105548  0.73297290  0.72436789  1
  C  C320  1  0.01901996  0.74520515  0.73505599  1
  C  C321  1  0.98717406  0.72338796  0.73352832  1
  C  C322  1  0.95220640  0.73477140  0.74450965  1
  C  C323  1  0.01814484  0.64203472  0.69426303  1
  C  C324  1  0.08593181  0.75443382  0.72645927  1
  C  C325  1  0.08491769  0.68707227  0.69899093  1
  C  C326  1  0.12361541  0.70313643  0.66690196  1
  C  C327  1  0.14669979  0.67309402  0.67305355  1
  C  C328  1  0.17857144  0.66739702  0.66096482  1
  C  C329  1  0.18850795  0.69095599  0.64182066  1
  C  C330  1  0.16422279  0.72115304  0.63606341  1
  C  C331  1  0.13232086  0.72680479  0.64803114  1
  C  C332  1  0.22092904  0.68547393  0.62833616  1
  C  C333  1  0.24694292  0.65679833  0.63107887  1
  C  C334  1  0.01938175  0.78113379  0.74897024  1
  C  C335  1  0.02689487  0.80001055  0.78862700  1
  C  C336  1  0.01773303  0.83716873  0.78187947  1
  C  C337  1  0.01007471  0.86377570  0.79884546  1
  C  C338  1  0.01240684  0.85451977  0.82301924  1
  C  C339  1  0.02393081  0.81724738  0.82926930  1
  C  C340  1  0.03060403  0.79020285  0.81230947  1
  C  C341  1  0.00500495  0.88229223  0.84087563  1
  C  C342  1  0.00227061  0.87291514  0.86394038  1
  C  C343  1  0.39511056  0.77042113  0.36576819  1
  C  C344  1  0.36162550  0.78728495  0.36950788  1
  C  C345  1  0.35305502  0.82408416  0.36110637  1
  C  C346  1  0.31866193  0.84057838  0.36478799  1
  C  C347  1  0.31090067  0.87671460  0.35670462  1
  C  C348  1  0.33735682  0.89691687  0.34458442  1
  C  C349  1  0.37170998  0.88184767  0.34107500  1
  C  C350  1  0.37975521  0.84585519  0.34944658  1
  C  C351  1  0.29360910  0.94517886  0.33627502  1
  C  C352  1  0.29354649  0.98164379  0.32282309  1
  C  C353  1  0.30626644  0.01427157  0.33452922  1
  C  C354  1  0.31092567  0.04790346  0.32139791  1
  C  C355  1  0.30471001  0.04816484  0.29679756  1
  C  C356  1  0.29476034  0.01420623  0.28533593  1
  C  C357  1  0.28855022  0.98055458  0.29819538  1
  C  C358  1  0.27803136  0.94344198  0.28710053  1
  C  C359  1  0.31340370  0.01320180  0.36060179  1
  C  C360  1  0.31018902  0.08498118  0.28391987  1
  C  C361  1  0.32267839  0.08362913  0.33350218  1
  C  C362  1  0.37369174  0.12481225  0.33795172  1
  C  C363  1  0.35369967  0.14718601  0.35305774  1
  C  C364  1  0.36802063  0.18087243  0.36176384  1
  C  C365  1  0.40325418  0.19339410  0.35617169  1
  C  C366  1  0.42270058  0.16993360  0.34055016  1
  C  C367  1  0.40855230  0.13605016  0.33199942  1
  C  C368  1  0.41897421  0.22752813  0.36598340  1
  C  C369  1  0.40229267  0.25178040  0.38179458  1
  C  C370  1  0.28979169  0.01463241  0.25919050  1
  C  C371  1  0.24297689  0.02304466  0.23075729  1
  C  C372  1  0.26760964  0.01450602  0.21328908  1
  C  C373  1  0.25507077  0.00699371  0.19073128  1
  C  C374  1  0.21790893  0.00877000  0.18466674  1
  C  C375  1  0.19372424  0.01885064  0.20265057  1
  C  C376  1  0.20621439  0.02615502  0.22530716  1
  C  C377  1  0.20558155  0.00089189  0.16086706  1
  C  C378  1  0.17014605  0.00171534  0.15430944  1
  C  C379  1  0.66278605  0.47955555  0.55402186  1
  C  C380  1  0.68932317  0.47097766  0.56703059  1
  C  C381  1  0.71717461  0.46219620  0.58124726  1
  C  C382  1  0.74304414  0.45476541  0.59498657  1
  C  C383  1  0.77069456  0.44666693  0.60943473  1
  C  C384  1  0.79663879  0.43906687  0.62296864  1
  C  C385  1  0.58437399  0.45646655  0.44690894  1
  C  C386  1  0.59793959  0.43323928  0.43340139  1
  C  C387  1  0.60996040  0.40628551  0.41984222  1
  C  C388  1  0.61816736  0.37769096  0.40861414  1
  C  C389  1  0.63094942  0.34879447  0.39694178  1
  C  C390  1  0.64477363  0.32249029  0.38613815  1
  C  C391  1  0.40901187  0.60189148  0.55348758  1
  C  C392  1  0.38260930  0.61233152  0.56521998  1
  C  C393  1  0.35468474  0.62306995  0.57795494  1
  C  C394  1  0.32866146  0.63211181  0.59036403  1
  C  C395  1  0.30098418  0.64172490  0.60356260  1
  C  C396  1  0.27502437  0.65072637  0.61594390  1
  C  C397  1  0.58936292  0.66398065  0.46554990  1
  C  C398  1  0.60061353  0.69046846  0.45303785  1
  C  C399  1  0.61215261  0.71851396  0.43932061  1
  C  C400  1  0.62224165  0.74448516  0.42593241  1
  C  C401  1  0.63298186  0.77209603  0.41167254  1
  C  C402  1  0.64305026  0.79796797  0.39830033  1
  C  C403  1  0.46768770  0.41203713  0.46522561  1
  C  C404  1  0.45761499  0.38628889  0.45149784  1
  C  C405  1  0.44729504  0.35904001  0.43676618  1
  C  C406  1  0.43877837  0.33356337  0.42255526  1
  C  C407  1  0.42893829  0.30618096  0.40785645  1
  C  C408  1  0.41912219  0.28031679  0.39434829  1
  C  C409  1  0.45132211  0.48059701  0.57599985  1
  C  C410  1  0.42723893  0.47004078  0.58936323  1
  C  C411  1  0.39937437  0.46305471  0.60248817  1
  C  C412  1  0.37085453  0.46002432  0.61334608  1
  C  C413  1  0.34198517  0.45118504  0.62517616  1
  C  C414  1  0.31493742  0.44274855  0.63631379  1
  C  C415  1  0.47346199  0.61483403  0.44663898  1
  C  C416  1  0.45799860  0.63530649  0.43168664  1
  C  C417  1  0.44313906  0.65908813  0.41639891  1
  C  C418  1  0.43158720  0.68552521  0.40386465  1
  C  C419  1  0.41887963  0.71364218  0.39081826  1
  C  C420  1  0.40682728  0.74008271  0.37862217  1
  C  C421  1  0.61609671  0.59577868  0.57596514  1
  C  C422  1  0.63999625  0.60957154  0.58895031  1
  C  C423  1  0.66731363  0.62201359  0.60186648  1
  C  C424  1  0.69601781  0.63088441  0.61203138  1
  C  C425  1  0.72588720  0.64258568  0.62258132  1
  C  C426  1  0.75389722  0.65358362  0.63248724  1
  C  C427  1  0.95598307  0.02222192  0.06742152  1
  C  C428  1  0.93873488  0.07315583  0.09611417  1
  C  C429  1  0.92481831  0.08092737  0.12051970  1
  C  C430  1  0.89114559  0.05715734  0.12621423  1
  C  C431  1  0.90144116  0.01475679  0.12333995  1
  C  C432  1  0.91500854  0.00669663  0.09910192  1
  C  C433  1  0.00678600  0.10755388  0.94351157  1
  C  C434  1  0.04614620  0.11612527  0.90838559  1
  C  C435  1  0.06513598  0.14454031  0.89281209  1
  C  C436  1  0.04161411  0.17906702  0.88596291  1
  C  C437  1  0.03221456  0.19876414  0.90902354  1
  C  C438  1  0.01273758  0.17130348  0.92537615  1
  C  C439  1  0.09435082  0.00857812  0.06370822  1
  C  C440  1  0.09371130  0.00413892  0.10776697  1
  C  C441  1  0.11501329  0.01119760  0.13010991  1
  C  C442  1  0.15375930  0.99523789  0.13028930  1
  C  C443  1  0.17335049  0.01087290  0.10869134  1
  C  C444  1  0.15168603  0.00427147  0.08608808  1
  C  C445  1  0.02882939  0.96183140  0.94827604  1
  C  C446  1  0.01959124  0.96170737  0.90384355  1
  C  C447  1  0.00379527  0.94036678  0.88287991  1
  C  C448  1  0.01250760  0.89766794  0.88439454  1
  C  C449  1  0.99648342  0.88276423  0.90731336  1
  C  C450  1  0.01207486  0.90293975  0.92854235  1
  N  N451  1  0.94713018  0.03126705  0.09252598  1
  N  N452  1  0.03246580  0.13394579  0.93061416  1
  N  N453  1  0.11295956  0.01936571  0.08652236  1
  N  N454  1  0.00769365  0.94596406  0.92740064  1
  O  O455  1  0.98276171  0.36913960  0.68176635  1
  O  O456  1  0.08164110  0.28637336  0.76599565  1
  O  O457  1  0.13364074  0.39481264  0.69047020  1
  O  O458  1  0.72781800  0.97415726  0.32941881  1
  O  O459  1  0.73325224  0.15775803  0.31929127  1
  O  O460  1  0.77718176  0.05109651  0.24307613  1
  O  O461  1  0.93991305  0.68731683  0.69326131  1
  O  O462  1  0.03322201  0.77273523  0.77252772  1
  O  O463  1  0.09260731  0.71070963  0.67849830  1
  O  O464  1  0.33107942  0.93231079  0.33614516  1
  O  O465  1  0.25388451  0.02903385  0.25330511  1
  O  O466  1  0.36037643  0.09205901  0.32860352  1
