# generated using pymatgen
data_H83C97N8O7
_symmetry_space_group_name_H-M   'P 1'
_cell_length_a   55.38214367
_cell_length_b   27.97276625
_cell_length_c   53.66528899
_cell_angle_alpha   92.11395871
_cell_angle_beta   89.87521414
_cell_angle_gamma   117.34595572
_symmetry_Int_Tables_number   1
_chemical_formula_structural   H83C97N8O7
_chemical_formula_sum   'H166 C194 N16 O14'
_cell_volume   73786.62477417
_cell_formula_units_Z   2
loop_
 _symmetry_equiv_pos_site_id
 _symmetry_equiv_pos_as_xyz
  1  'x, y, z'
loop_
 _atom_site_type_symbol
 _atom_site_label
 _atom_site_symmetry_multiplicity
 _atom_site_fract_x
 _atom_site_fract_y
 _atom_site_fract_z
 _atom_site_occupancy
  H  H0  1  0.06788831  0.93198283  0.61027748  1
  H  H1  1  0.07059566  0.00885829  0.68196936  1
  H  H2  1  0.06727166  0.97634997  0.57192063  1
  H  H3  1  0.06658509  0.13059154  0.57744898  1
  H  H4  1  0.06869944  0.17430419  0.61761677  1
  H  H5  1  0.07010135  0.09555394  0.68471287  1
  H  H6  1  0.06727071  0.92420153  0.42808453  1
  H  H7  1  0.06227397  0.99150324  0.35849042  1
  H  H8  1  0.06845366  0.97215509  0.46858115  1
  H  H9  1  0.07125110  0.12933671  0.46592748  1
  H  H10  1  0.06846483  0.16589561  0.42801606  1
  H  H11  1  0.06133615  0.07896331  0.35839639  1
  H  H12  1  0.10444434  0.60027185  0.72783068  1
  H  H13  1  0.09595708  0.63266346  0.75313041  1
  H  H14  1  0.06216624  0.47846784  0.75452263  1
  H  H15  1  0.04153698  0.46673729  0.72721392  1
  H  H16  1  0.03342218  0.54491426  0.71202033  1
  H  H17  1  0.06763186  0.57248417  0.70137238  1
  H  H18  1  0.05141574  0.59312247  0.76944641  1
  H  H19  1  0.04871367  0.53044587  0.77933753  1
  H  H20  1  0.10541301  0.57263842  0.31143263  1
  H  H21  1  0.09379568  0.51083879  0.29334034  1
  H  H22  1  0.06351873  0.60689855  0.28662712  1
  H  H23  1  0.03746114  0.57697888  0.30906427  1
  H  H24  1  0.03436498  0.50163344  0.33269678  1
  H  H25  1  0.06896517  0.52130282  0.34030080  1
  H  H26  1  0.04604707  0.46246129  0.27534659  1
  H  H27  1  0.05023577  0.52289333  0.26142805  1
  H  H28  1  0.85610885  0.32825209  0.17046437  1
  H  H29  1  0.84226969  0.20780528  0.16365549  1
  H  H30  1  0.80988645  0.16056895  0.12843879  1
  H  H31  1  0.78465371  0.16230999  0.09133147  1
  H  H32  1  0.81095310  0.33187961  0.10572017  1
  H  H33  1  0.83572314  0.33080725  0.14305339  1
  H  H34  1  0.75499987  0.17653249  0.06300841  1
  H  H35  1  0.78781795  0.19895223  0.05044147  1
  H  H36  1  0.81867830  0.26747930  0.99605744  1
  H  H37  1  0.80113951  0.20430580  0.00958712  1
  H  H38  1  0.81862690  0.26330729  0.02880011  1
  H  H39  1  0.73420831  0.21979091  0.07588139  1
  H  H40  1  0.70696453  0.17821489  0.05540787  1
  H  H41  1  0.71191997  0.24345938  0.06493448  1
  H  H42  1  0.75440909  0.32848691  0.96252733  1
  H  H43  1  0.73732117  0.34564202  0.98636067  1
  H  H44  1  0.72044944  0.28403706  0.96892773  1
  H  H45  1  0.69586709  0.26168609  0.00206724  1
  H  H46  1  0.69355283  0.24760763  0.03428080  1
  H  H47  1  0.66087865  0.26396079  0.01872257  1
  H  H48  1  0.62654180  0.29565791  0.01561171  1
  H  H49  1  0.68828301  0.45831520  0.03301961  1
  H  H50  1  0.72313919  0.42639776  0.03443900  1
  H  H51  1  0.64667773  0.44647614  0.03065975  1
  H  H52  1  0.59692536  0.33965238  0.01372736  1
  H  H53  1  0.78926845  0.33717958  0.96626767  1
  H  H54  1  0.81150829  0.31133392  0.97475785  1
  H  H55  1  0.81675990  0.36055732  0.94030213  1
  H  H56  1  0.84963631  0.38151386  0.90688579  1
  H  H57  1  0.80932979  0.21556333  0.87946634  1
  H  H58  1  0.77667431  0.19429305  0.91401645  1
  H  H59  1  0.86799006  0.36198972  0.87515769  1
  H  H60  1  0.84946637  0.24953458  0.84990204  1
  H  H61  1  0.28153034  0.84094313  0.86815260  1
  H  H62  1  0.24983883  0.71915514  0.87700241  1
  H  H63  1  0.25877150  0.68129246  0.90909513  1
  H  H64  1  0.28473385  0.68190880  0.94601301  1
  H  H65  1  0.33760150  0.85166947  0.93856617  1
  H  H66  1  0.31147526  0.85128030  0.90117918  1
  H  H67  1  0.31380683  0.68809007  0.97028339  1
  H  H68  1  0.29280258  0.71208927  0.98542201  1
  H  H69  1  0.30090603  0.79223621  0.04155399  1
  H  H70  1  0.28235728  0.72775401  0.02710472  1
  H  H71  1  0.29956793  0.78484432  0.00876182  1
  H  H72  1  0.34905180  0.69748420  0.96439523  1
  H  H73  1  0.35227842  0.65125902  0.98407964  1
  H  H74  1  0.38090362  0.71261272  0.97739358  1
  H  H75  1  0.38131352  0.79523113  0.08374783  1
  H  H76  1  0.40715149  0.80679149  0.06150576  1
  H  H77  1  0.38916344  0.74303526  0.07446867  1
  H  H78  1  0.39917098  0.71180264  0.04211224  1
  H  H79  1  0.39160136  0.69234305  0.01011179  1
  H  H80  1  0.42323781  0.68303917  0.01963218  1
  H  H81  1  0.46543093  0.67794539  0.01747176  1
  H  H82  1  0.51009748  0.85190521  0.01472426  1
  H  H83  1  0.46623295  0.85524506  0.01224697  1
  H  H84  1  0.53578405  0.79132262  0.01636111  1
  H  H85  1  0.49533894  0.68227954  0.03681827  1
  H  H86  1  0.36005417  0.83755103  0.07481607  1
  H  H87  1  0.32562267  0.81702518  0.06687213  1
  H  H88  1  0.33991316  0.86730957  0.10311704  1
  H  H89  1  0.31868426  0.89049333  0.13858807  1
  H  H90  1  0.28125250  0.72464900  0.15992147  1
  H  H91  1  0.30381770  0.70203870  0.12476913  1
  H  H92  1  0.28340715  0.85947467  0.17133364  1
  H  H93  1  0.27983424  0.76222165  0.19809153  1
  H  H94  1  0.97907891  0.53022815  0.78506459  1
  H  H95  1  0.89657215  0.27734011  0.81917998  1
  H  H96  1  1.00079930  0.44827373  0.76911516  1
  H  H97  1  0.88005994  0.36703760  0.83303910  1
  H  H98  1  0.96655847  0.47053496  0.27373947  1
  H  H99  1  0.90409272  0.27092174  0.18659702  1
  H  H100  1  0.00439605  0.42022836  0.25583465  1
  H  H101  1  0.86856186  0.31605940  0.21254916  1
  H  H102  1  0.15817818  0.59122801  0.76727263  1
  H  H103  1  0.21548130  0.79273068  0.85380187  1
  H  H104  1  0.12071276  0.63908842  0.78894260  1
  H  H105  1  0.25682934  0.76363774  0.82680536  1
  H  H106  1  0.13219078  0.58812736  0.23722505  1
  H  H107  1  0.24685337  0.81706684  0.23301528  1
  H  H108  1  0.13202692  0.65007579  0.28700948  1
  H  H109  1  0.22650897  0.74417604  0.18538616  1
  H  H110  1  0.57141429  0.74399255  0.02930810  1
  H  H111  1  0.59239679  0.68413983  0.02933908  1
  H  H112  1  0.51459931  0.54768595  0.01176490  1
  H  H113  1  0.49390415  0.60761342  0.01177920  1
  H  H114  1  0.59031131  0.59628884  0.02547452  1
  H  H115  1  0.53418630  0.49864205  0.01311241  1
  H  H116  1  0.53256373  0.41052837  0.00919404  1
  H  H117  1  0.55432877  0.35209352  0.00975715  1
  H  H118  1  0.63174408  0.49218608  0.02557303  1
  H  H119  1  0.61004727  0.54870934  0.02624992  1
  H  H120  1  0.04217909  0.20384541  0.64682975  1
  H  H121  1  0.03234744  0.28005153  0.65827670  1
  H  H122  1  0.04567921  0.36736660  0.67954954  1
  H  H123  1  0.11508202  0.36042835  0.71282272  1
  H  H124  1  0.10211294  0.27341555  0.69088902  1
  H  H125  1  0.10929576  0.44173953  0.72043127  1
  H  H126  1  0.07645661  0.18776300  0.68745338  1
  H  H127  1  0.06440964  0.45070710  0.68949191  1
  H  H128  1  0.03306523  0.85810611  0.65273558  1
  H  H129  1  0.01619990  0.76620906  0.66509422  1
  H  H130  1  0.02273867  0.69454980  0.68369412  1
  H  H131  1  0.10511072  0.80986336  0.70481607  1
  H  H132  1  0.09875111  0.88127319  0.68636077  1
  H  H133  1  0.09012999  0.72051843  0.71594503  1
  H  H134  1  0.09144734  0.93692541  0.67152357  1
  H  H135  1  0.03108006  0.63411211  0.70132059  1
  H  H136  1  0.03700084  0.86446712  0.35834916  1
  H  H137  1  0.03053511  0.77984699  0.33448170  1
  H  H138  1  0.04517261  0.71101716  0.32535964  1
  H  H139  1  0.11185291  0.79009189  0.37860725  1
  H  H140  1  0.09671293  0.85780601  0.38828377  1
  H  H141  1  0.10499414  0.70317556  0.35465402  1
  H  H142  1  0.09530144  0.92645269  0.38013838  1
  H  H143  1  0.04566554  0.63901786  0.33547077  1
  H  H144  1  0.02920464  0.15453145  0.36295597  1
  H  H145  1  0.01249014  0.21561489  0.34818088  1
  H  H146  1  0.01890229  0.30536621  0.33945688  1
  H  H147  1  0.10296719  0.37262431  0.36367275  1
  H  H148  1  0.09634597  0.28367051  0.37368373  1
  H  H149  1  0.08613304  0.43328250  0.34803434  1
  H  H150  1  0.08631778  0.21344637  0.38803563  1
  H  H151  1  0.03280722  0.37158204  0.31726639  1
  H  H152  1  0.04037291  0.04870529  0.54221959  1
  H  H153  1  0.09731492  0.13954415  0.54757818  1
  H  H154  1  0.06599106  0.13792386  0.53921399  1
  H  H155  1  0.08430597  0.14882707  0.49940178  1
  H  H156  1  0.10576292  0.12068023  0.50642644  1
  H  H157  1  0.02487388  0.03557628  0.47925326  1
  H  H158  1  0.03741143  0.09719703  0.49650899  1
  H  H159  1  0.02096725  0.03583325  0.51182409  1
  H  H160  1  0.02213544  0.96215359  0.51475750  1
  H  H161  1  0.03928640  0.94693840  0.53838368  1
  H  H162  1  0.04587533  0.93883108  0.50665054  1
  H  H163  1  0.09667299  0.01305356  0.54121071  1
  H  H164  1  0.10950922  0.05527101  0.51582187  1
  H  H165  1  0.09083060  0.98500412  0.51052861  1
  C  C166  1  0.06814859  0.00914238  0.60904824  1
  C  C167  1  0.06829256  0.96567953  0.62141516  1
  C  C168  1  0.06987817  0.96559693  0.64760760  1
  C  C169  1  0.07039858  0.00918310  0.66168212  1
  C  C170  1  0.06954533  0.05295776  0.65037599  1
  C  C171  1  0.06866846  0.05296949  0.62382588  1
  C  C172  1  0.06718022  0.01012924  0.58257068  1
  C  C173  1  0.06697526  0.05382206  0.57079618  1
  C  C174  1  0.06746109  0.09647027  0.58570175  1
  C  C175  1  0.06824817  0.09726303  0.61209740  1
  C  C176  1  0.06826538  0.14001653  0.62695943  1
  C  C177  1  0.06837939  0.13989654  0.65324203  1
  C  C178  1  0.06971854  0.09662204  0.66447442  1
  C  C179  1  0.06716455  1.00111138  0.43192290  1
  C  C180  1  0.06714762  0.95737078  0.41815333  1
  C  C181  1  0.06677720  0.95484250  0.39188105  1
  C  C182  1  0.06375218  0.99432017  0.37877828  1
  C  C183  1  0.06399570  0.03958617  0.39140164  1
  C  C184  1  0.06640058  0.04273146  0.41791492  1
  C  C185  1  0.06803815  0.00512523  0.45870996  1
  C  C186  1  0.06948310  0.05095285  0.47155898  1
  C  C187  1  0.07038603  0.09273550  0.45731327  1
  C  C188  1  0.06804330  0.08904372  0.43099046  1
  C  C189  1  0.06733542  0.13070821  0.41762985  1
  C  C190  1  0.06462969  0.12826596  0.39165997  1
  C  C191  1  0.06281951  0.08215436  0.37867502  1
  C  C192  1  0.05482705  0.57085273  0.71742636  1
  C  C193  1  0.06361906  0.55187724  0.74083174  1
  C  C194  1  0.04615210  0.55142343  0.76337954  1
  C  C195  1  0.09358681  0.59347637  0.74561461  1
  C  C196  1  0.06081666  0.49495852  0.73654723  1
  C  C197  1  0.05317817  0.50262900  0.32567290  1
  C  C198  1  0.06155351  0.53371082  0.30117541  1
  C  C199  1  0.04405421  0.49964912  0.27850792  1
  C  C200  1  0.09155248  0.54783332  0.29615270  1
  C  C201  1  0.05829906  0.58532210  0.30416380  1
  C  C202  1  0.85808536  0.29193151  0.17416038  1
  C  C203  1  0.84296775  0.24630327  0.15948100  1
  C  C204  1  0.82666243  0.24606061  0.13831652  1
  C  C205  1  0.81093385  0.19883802  0.12329268  1
  C  C206  1  0.79649995  0.19965347  0.10224024  1
  C  C207  1  0.79712694  0.24813321  0.09546838  1
  C  C208  1  0.81112631  0.29455829  0.11067196  1
  C  C209  1  0.82549113  0.29363896  0.13170557  1
  C  C210  1  0.77245395  0.21193279  0.05566184  1
  C  C211  1  0.76404133  0.23534510  0.03447034  1
  C  C212  1  0.74026010  0.24181605  0.03714477  1
  C  C213  1  0.73269061  0.26596893  0.01807044  1
  C  C214  1  0.74905842  0.28521008  0.99679518  1
  C  C215  1  0.77292356  0.27908884  0.99457772  1
  C  C216  1  0.78060674  0.25401128  0.01326484  1
  C  C217  1  0.80593268  0.24712749  0.01177140  1
  C  C218  1  0.72260453  0.22011878  0.05941379  1
  C  C219  1  0.74008791  0.31217818  0.97774382  1
  C  C220  1  0.70728882  0.27261634  0.01994427  1
  C  C221  1  0.69442575  0.34357310  0.02586109  1
  C  C222  1  0.66715895  0.30696614  0.02107641  1
  C  C223  1  0.64753484  0.32503584  0.01988931  1
  C  C224  1  0.65451835  0.38007920  0.02425231  1
  C  C225  1  0.68227131  0.41570103  0.02961124  1
  C  C226  1  0.70192079  0.39807252  0.03035763  1
  C  C227  1  0.63605211  0.40430714  0.02428641  1
  C  C228  1  0.60901348  0.38260396  0.01830398  1
  C  C229  1  0.78991100  0.30034091  0.97184612  1
  C  C230  1  0.79621412  0.27470958  0.93069754  1
  C  C231  1  0.81579047  0.32800436  0.92785651  1
  C  C232  1  0.83392397  0.34012922  0.90852076  1
  C  C233  1  0.83302588  0.30036337  0.89088784  1
  C  C234  1  0.81154955  0.24737193  0.89303587  1
  C  C235  1  0.79314431  0.23506653  0.91251737  1
  C  C236  1  0.85402617  0.31916568  0.87219195  1
  C  C237  1  0.85930668  0.29345312  0.85213788  1
  C  C238  1  0.26722418  0.79851095  0.86450501  1
  C  C239  1  0.26572086  0.76040738  0.88055974  1
  C  C240  1  0.28246510  0.76595335  0.90232123  1
  C  C241  1  0.27588036  0.71893095  0.91562387  1
  C  C242  1  0.29033963  0.71945571  0.93670013  1
  C  C243  1  0.31200996  0.76772297  0.94543252  1
  C  C244  1  0.31998382  0.81465281  0.93212804  1
  C  C245  1  0.30526849  0.81408106  0.91098134  1
  C  C246  1  0.31409626  0.72197052  0.98155725  1
  C  C247  1  0.33110342  0.73268178  0.00476701  1
  C  C248  1  0.35331991  0.72108945  0.00396173  1
  C  C249  1  0.37042220  0.73449702  0.02525034  1
  C  C250  1  0.36634307  0.76091449  0.04661292  1
  C  C251  1  0.34394182  0.77226712  0.04705842  1
  C  C252  1  0.32592208  0.75734071  0.02629274  1
  C  C253  1  0.30113970  0.76616314  0.02597034  1
  C  C254  1  0.35907197  0.69451031  0.98140854  1
  C  C255  1  0.38683407  0.77739867  0.06762089  1
  C  C256  1  0.39464403  0.72424075  0.02418862  1
  C  C257  1  0.44207584  0.77003052  0.01700228  1
  C  C258  1  0.44212640  0.72042857  0.01872361  1
  C  C259  1  0.46652087  0.71785292  0.01857559  1
  C  C260  1  0.49189696  0.76471718  0.01825795  1
  C  C261  1  0.49117001  0.81460381  0.01565340  1
  C  C262  1  0.46659816  0.81695687  0.01453508  1
  C  C263  1  0.51612752  0.75720194  0.01982218  1
  C  C264  1  0.51340288  0.70807111  0.02630958  1
  C  C265  1  0.34056572  0.80208241  0.06970033  1
  C  C266  1  0.32171720  0.78224459  0.11080932  1
  C  C267  1  0.32656252  0.83562599  0.11518570  1
  C  C268  1  0.31486218  0.84882892  0.13547720  1
  C  C269  1  0.29821271  0.80938224  0.15223482  1
  C  C270  1  0.29458069  0.75618525  0.14781234  1
  C  C271  1  0.30676274  0.74313649  0.12782527  1
  C  C272  1  0.28353051  0.82060574  0.17194812  1
  C  C273  1  0.27029274  0.78555782  0.19048055  1
  C  C274  1  0.99979824  0.48657754  0.77071579  1
  C  C275  1  0.97905365  0.49128606  0.78267837  1
  C  C276  1  0.95766537  0.44579339  0.79361056  1
  C  C277  1  0.92000206  0.36117808  0.81083986  1
  C  C278  1  0.89758698  0.31699069  0.82162518  1
  C  C279  1  0.87851398  0.32654930  0.83444742  1
  C  C280  1  0.99763751  0.44643426  0.26618487  1
  C  C281  1  0.97212979  0.44258665  0.26361902  1
  C  C282  1  0.95253908  0.40339186  0.24676463  1
  C  C283  1  0.91890972  0.33285344  0.21580228  1
  C  C284  1  0.89869277  0.29700717  0.19826682  1
  C  C285  1  0.87406597  0.29806505  0.19638796  1
  C  C286  1  0.12676612  0.61301017  0.77755466  1
  C  C287  1  0.15235957  0.61713511  0.77876621  1
  C  C288  1  0.17236909  0.65865623  0.79443682  1
  C  C289  1  0.20419570  0.73256390  0.82424020  1
  C  C290  1  0.22329588  0.77149822  0.84143921  1
  C  C291  1  0.24998679  0.78104188  0.84226995  1
  C  C292  1  0.12561605  0.61808283  0.27232739  1
  C  C293  1  0.13981167  0.62180644  0.25095585  1
  C  C294  1  0.16491624  0.66698136  0.24507111  1
  C  C295  1  0.20966258  0.74284681  0.23120349  1
  C  C296  1  0.23516390  0.78057884  0.22162109  1
  C  C297  1  0.24298542  0.77107085  0.19830673  1
  C  C298  1  0.55866552  0.70098505  0.02549531  1
  C  C299  1  0.57063803  0.66688347  0.02539950  1
  C  C300  1  0.55559519  0.61010686  0.02081672  1
  C  C301  1  0.52749715  0.59056765  0.01566276  1
  C  C302  1  0.51559392  0.62456627  0.01599033  1
  C  C303  1  0.53027022  0.68050854  0.02167788  1
  C  C304  1  0.56856470  0.57496366  0.02128144  1
  C  C305  1  0.55596247  0.52016310  0.01716797  1
  C  C306  1  0.56913891  0.48545268  0.01756520  1
  C  C307  1  0.55438122  0.42859084  0.01300267  1
  C  C308  1  0.56674007  0.39535286  0.01326735  1
  C  C309  1  0.59512510  0.41597714  0.01802947  1
  C  C310  1  0.60981666  0.47266149  0.02240039  1
  C  C311  1  0.59737724  0.50571975  0.02242112  1
  C  C312  1  0.06849803  0.18395855  0.66849787  1
  C  C313  1  0.05815178  0.21713162  0.66117259  1
  C  C314  1  0.06570975  0.26890702  0.67332592  1
  C  C315  1  0.05068815  0.29791722  0.66997744  1
  C  C316  1  0.05852413  0.34765723  0.68163250  1
  C  C317  1  0.08256914  0.37266146  0.69667528  1
  C  C318  1  0.09728129  0.34315487  0.70043478  1
  C  C319  1  0.08944000  0.29347041  0.68878488  1
  C  C320  1  0.09130407  0.42545638  0.70814801  1
  C  C321  1  0.07726650  0.45458540  0.70575833  1
  C  C322  1  0.07240586  0.92296121  0.66083846  1
  C  C323  1  0.05314189  0.87068533  0.66107252  1
  C  C324  1  0.05694856  0.82943508  0.67331452  1
  C  C325  1  0.03582589  0.77565752  0.67357966  1
  C  C326  1  0.03949602  0.73533095  0.68428287  1
  C  C327  1  0.06469339  0.74639110  0.69578248  1
  C  C328  1  0.08562717  0.80037731  0.69599885  1
  C  C329  1  0.08195482  0.84056675  0.68532208  1
  C  C330  1  0.06988928  0.70647053  0.70754578  1
  C  C331  1  0.05206692  0.65280079  0.70859510  1
  C  C332  1  0.07347509  0.91468424  0.37929778  1
  C  C333  1  0.05649531  0.86982873  0.36567231  1
  C  C334  1  0.06353734  0.82676954  0.36075806  1
  C  C335  1  0.04844553  0.78229321  0.34406601  1
  C  C336  1  0.05614532  0.74240580  0.33961285  1
  C  C337  1  0.07881194  0.74310757  0.35237612  1
  C  C338  1  0.09392931  0.78766101  0.36904762  1
  C  C339  1  0.08605820  0.82720470  0.37365552  1
  C  C340  1  0.08571775  0.69997364  0.34767160  1
  C  C341  1  0.06779376  0.65443685  0.33465059  1
  C  C342  1  0.06779155  0.17872053  0.38084069  1
  C  C343  1  0.04905360  0.18758260  0.36821859  1
  C  C344  1  0.05354064  0.24110941  0.36195730  1
  C  C345  1  0.03247514  0.24990854  0.35148420  1
  C  C346  1  0.03637147  0.30072412  0.34579743  1
  C  C347  1  0.06214833  0.34670350  0.34917812  1
  C  C348  1  0.08309335  0.33814066  0.36013583  1
  C  C349  1  0.07909842  0.28749126  0.36611379  1
  C  C350  1  0.06670956  0.39952753  0.34228166  1
  C  C351  1  0.04807782  0.40567293  0.32805191  1
  C  C352  1  0.06368961  0.05830400  0.49896752  1
  C  C353  1  0.06497647  0.02265993  0.52083059  1
  C  C354  1  0.06220776  0.05808588  0.54316712  1
  C  C355  1  0.07863100  0.11731000  0.53630550  1
  C  C356  1  0.08493420  0.11529797  0.50881628  1
  C  C357  1  0.03499928  0.05596589  0.49682668  1
  C  C358  1  0.04182123  0.96474560  0.52005631  1
  C  C359  1  0.09192797  0.01917959  0.52208690  1
  N  N360  1  0.93834999  0.45181962  0.80739001  1
  N  N361  1  0.91944621  0.40890999  0.81578395  1
  N  N362  1  0.93966006  0.35544688  0.79743347  1
  N  N363  1  0.95875248  0.39867195  0.78904104  1
  N  N364  1  0.92767489  0.40197770  0.24381504  1
  N  N365  1  0.91083575  0.36590359  0.22870924  1
  N  N366  1  0.94364322  0.33380673  0.21897551  1
  N  N367  1  0.96034519  0.36911386  0.23478850  1
  N  N368  1  0.19875141  0.66715918  0.79525839  1
  N  N369  1  0.21478696  0.70520122  0.81017629  1
  N  N370  1  0.17791145  0.72484212  0.82285564  1
  N  N371  1  0.16210481  0.68777776  0.80738081  1
  N  N372  1  0.17538220  0.65941129  0.22309826  1
  N  N373  1  0.19716969  0.69799706  0.21570550  1
  N  N374  1  0.19933511  0.75076592  0.25322642  1
  N  N375  1  0.17634779  0.71271667  0.25995025  1
  O  O376  1  0.05872417  0.62465096  0.72419555  1
  O  O377  1  0.01711120  0.52683524  0.75735724  1
  O  O378  1  0.10786364  0.57557310  0.76280124  1
  O  O379  1  0.08294573  0.49654820  0.72133702  1
  O  O380  1  0.04682701  0.44814939  0.32131082  1
  O  O381  1  0.01515384  0.48370705  0.28206242  1
  O  O382  1  0.10057397  0.57746361  0.27332763  1
  O  O383  1  0.07640029  0.62209864  0.32364597  1
  O  O384  1  0.78367729  0.25384676  0.07546362  1
  O  O385  1  0.77983986  0.26084101  0.95094419  1
  O  O386  1  0.71470315  0.32886331  0.02636831  1
  O  O387  1  0.32584404  0.77010565  0.96673831  1
  O  O388  1  0.33178820  0.76649782  0.09070455  1
  O  O389  1  0.41837297  0.77353972  0.01740612  1
