# generated using pymatgen
data_ZnSiH176C276(NO3)4
_symmetry_space_group_name_H-M   'P 1'
_cell_length_a   37.22767497
_cell_length_b   36.26795387
_cell_length_c   67.25588766
_cell_angle_alpha   89.15190585
_cell_angle_beta   91.56257446
_cell_angle_gamma   87.52812894
_symmetry_Int_Tables_number   1
_chemical_formula_structural   ZnSiH176C276(NO3)4
_chemical_formula_sum   'Zn1 Si1 H176 C276 N4 O12'
_cell_volume   90677.15227495
_cell_formula_units_Z   1
loop_
 _symmetry_equiv_pos_site_id
 _symmetry_equiv_pos_as_xyz
  1  'x, y, z'
loop_
 _atom_site_type_symbol
 _atom_site_label
 _atom_site_symmetry_multiplicity
 _atom_site_fract_x
 _atom_site_fract_y
 _atom_site_fract_z
 _atom_site_occupancy
  Zn  Zn0  1  0.03502732  0.02597857  0.01390643  1
  Si  Si1  1  0.54684198  0.52996208  0.51993502  1
  H  H2  1  0.07338963  0.00687645  0.05251197  1
  H  H3  1  0.10784957  0.10875747  0.07723928  1
  H  H4  1  0.08514798  0.14143561  0.04566343  1
  H  H5  1  0.05434313  0.10494982  0.01970212  1
  H  H6  1  -0.00510110  0.05117882  0.05172775  1
  H  H7  1  0.95941577  0.95110099  0.07881349  1
  H  H8  1  0.98491924  0.91590401  0.04993646  1
  H  H9  1  0.01764027  0.95039965  0.02437653  1
  H  H10  1  0.02008861  0.06610013  0.97460024  1
  H  H11  1  0.12290774  0.09144416  0.95140290  1
  H  H12  1  0.15244405  0.06316427  0.98273551  1
  H  H13  1  0.11335901  0.03594055  0.00801127  1
  H  H14  1  0.05700791  0.97895338  0.97765843  1
  H  H15  1  0.95688798  0.94867374  0.95019063  1
  H  H16  1  0.92436710  0.97885367  0.97870824  1
  H  H17  1  0.96045469  0.01147899  0.00403575  1
  H  H18  1  0.67761294  0.54213703  0.56686642  1
  H  H19  1  0.53768536  0.65732407  0.46633064  1
  H  H20  1  0.50161283  0.55496129  0.48925587  1
  H  H21  1  0.54156347  0.41053339  0.46306644  1
  H  H22  1  0.42496579  0.52983517  0.57220993  1
  H  H23  1  0.60147649  0.59774807  0.51173449  1
  H  H24  1  0.49014725  0.46280171  0.51268582  1
  H  H25  1  0.58718253  0.50553872  0.48870655  1
  H  H26  1  0.52604859  0.48787222  0.55151637  1
  H  H27  1  0.47836256  0.59022800  0.52667128  1
  H  H28  1  0.62055090  0.47413964  0.52614545  1
  H  H29  1  0.56575040  0.56635900  0.55430079  1
  H  H30  1  0.85653169  0.47270125  0.63406823  1
  H  H31  1  0.86026608  0.39026420  0.62285360  1
  H  H32  1  0.90904603  0.35165051  0.63237518  1
  H  H33  1  0.96938887  0.33893074  0.64701094  1
  H  H34  1  0.97309193  0.45186512  0.66551922  1
  H  H35  1  0.91272493  0.46534411  0.65041704  1
  H  H36  1  0.02762487  0.34012756  0.65334088  1
  H  H37  1  0.00340952  0.33339754  0.67534906  1
  H  H38  1  0.02688194  0.33809982  0.72724985  1
  H  H39  1  0.01703031  0.30926080  0.70712603  1
  H  H40  1  0.00216448  0.35641275  0.70627177  1
  H  H41  1  0.06328342  0.37018267  0.64117256  1
  H  H42  1  0.10014358  0.33767241  0.64087129  1
  H  H43  1  0.10722846  0.38541256  0.64287498  1
  H  H44  1  0.15648478  0.36490666  0.72929504  1
  H  H45  1  0.16670065  0.39528907  0.70954354  1
  H  H46  1  0.17983131  0.34800051  0.70872566  1
  H  H47  1  0.17923437  0.36023365  0.67735299  1
  H  H48  1  0.15253933  0.36868944  0.65529792  1
  H  H49  1  0.20183378  0.37784214  0.65078844  1
  H  H50  1  0.25720944  0.40173230  0.63940097  1
  H  H51  1  0.23385400  0.50494479  0.66982902  1
  H  H52  1  0.17578865  0.48040114  0.68053263  1
  H  H53  1  0.29286572  0.49402859  0.65098312  1
  H  H54  1  0.30288371  0.41223412  0.63784701  1
  H  H55  1  0.10940651  0.37233248  0.74077616  1
  H  H56  1  0.06597217  0.35478831  0.74142002  1
  H  H57  1  0.09400571  0.36193226  0.77094473  1
  H  H58  1  0.08166800  0.34290633  0.80524410  1
  H  H59  1  0.10395565  0.22875361  0.78992794  1
  H  H60  1  0.11519814  0.24828768  0.75546247  1
  H  H61  1  0.07756256  0.29537183  0.83116229  1
  H  H62  1  0.09238814  0.21469265  0.81779600  1
  H  H63  1  0.63604529  0.82029662  0.39975446  1
  H  H64  1  0.70091040  0.83593439  0.42770205  1
  H  H65  1  0.73832001  0.88391007  0.42043679  1
  H  H66  1  0.75721300  0.93600101  0.40029002  1
  H  H67  1  0.66895400  0.92081019  0.35889846  1
  H  H68  1  0.64981854  0.86813269  0.37895954  1
  H  H69  1  0.77743146  0.96878929  0.37286120  1
  H  H70  1  0.74664315  0.99362723  0.38777061  1
  H  H71  1  0.69350720  0.07604373  0.38237021  1
  H  H72  1  0.73101958  0.05304561  0.39414996  1
  H  H73  1  0.69563717  0.02738456  0.38407001  1
  H  H74  1  0.78859552  0.95726379  0.34496286  1
  H  H75  1  0.82385513  0.98784036  0.34164665  1
  H  H76  1  0.79713210  0.97443451  0.32101454  1
  H  H77  1  0.72795782  0.13018584  0.31802078  1
  H  H78  1  0.73671357  0.09669142  0.29965974  1
  H  H79  1  0.77248282  0.11792124  0.31214341  1
  H  H80  1  0.80223481  0.06861416  0.30422215  1
  H  H81  1  0.80934728  0.02002798  0.30705061  1
  H  H82  1  0.83300363  0.04290858  0.28160835  1
  H  H83  1  0.85578951  0.04653205  0.24814705  1
  H  H84  1  0.74829588  0.03463742  0.22358407  1
  H  H85  1  0.72522191  0.03160717  0.25781116  1
  H  H86  1  0.79840584  0.04013404  0.20062468  1
  H  H87  1  0.87350969  0.05163320  0.22023700  1
  H  H88  1  0.69119077  0.12179578  0.33665758  1
  H  H89  1  0.68335204  0.10832143  0.36143052  1
  H  H90  1  0.65852265  0.15976528  0.35007312  1
  H  H91  1  0.62421434  0.20756661  0.36808156  1
  H  H92  1  0.72244920  0.23690194  0.39914981  1
  H  H93  1  0.75586196  0.18707469  0.38200403  1
  H  H94  1  0.62167495  0.25807596  0.39119330  1
  H  H95  1  0.69422068  0.27369332  0.41297272  1
  H  H96  1  0.80669076  0.66322727  0.62598878  1
  H  H97  1  0.79941337  0.59516479  0.65418221  1
  H  H98  1  0.84965701  0.58289591  0.67784034  1
  H  H99  1  0.91079643  0.59546475  0.69005056  1
  H  H100  1  0.91627723  0.68412653  0.64658683  1
  H  H101  1  0.85578056  0.67059711  0.63339625  1
  H  H102  1  0.96722559  0.60139451  0.69112387  1
  H  H103  1  0.94262749  0.63434034  0.70519972  1
  H  H104  1  0.96083626  0.71767245  0.72821091  1
  H  H105  1  0.95271407  0.67053249  0.73128775  1
  H  H106  1  0.93785562  0.69447303  0.70922373  1
  H  H107  1  0.00053831  0.60112592  0.66864124  1
  H  H108  1  0.03697590  0.58113550  0.68308752  1
  H  H109  1  0.04470835  0.60897165  0.66186343  1
  H  H110  1  0.08920650  0.73596455  0.71433489  1
  H  H111  1  0.10123830  0.72081361  0.69027341  1
  H  H112  1  0.11415840  0.69407965  0.71169236  1
  H  H113  1  0.11626216  0.64936723  0.68988147  1
  H  H114  1  0.09101439  0.62098500  0.67386950  1
  H  H115  1  0.14752949  0.61714016  0.66812403  1
  H  H116  1  0.20359089  0.61025238  0.65037058  1
  H  H117  1  0.17390124  0.70831071  0.61536923  1
  H  H118  1  0.11733224  0.71519451  0.63363768  1
  H  H119  1  0.22939104  0.67677062  0.60834582  1
  H  H120  1  0.25312957  0.60666129  0.63298845  1
  H  H121  1  0.04193378  0.75742780  0.71900468  1
  H  H122  1  0.99849907  0.74809968  0.72705632  1
  H  H123  1  0.02203482  0.79699512  0.73924210  1
  H  H124  1  0.00686604  0.84007330  0.76589497  1
  H  H125  1  0.03339038  0.75364003  0.80973526  1
  H  H126  1  0.04613442  0.71017784  0.78273217  1
  H  H127  1  0.00369920  0.85489430  0.80130023  1
  H  H128  1  0.01725474  0.78851240  0.83061031  1
  H  H129  1  0.44175219  0.79280452  0.39280964  1
  H  H130  1  0.36648108  0.78620269  0.41132573  1
  H  H131  1  0.32382684  0.83863738  0.40418055  1
  H  H132  1  0.31104209  0.90176364  0.39110405  1
  H  H133  1  0.42053975  0.90664528  0.37172273  1
  H  H134  1  0.43440157  0.84414234  0.38560590  1
  H  H135  1  0.31210816  0.96010829  0.38598421  1
  H  H136  1  0.30599752  0.93531251  0.36369668  1
  H  H137  1  0.31221214  0.95598832  0.31253188  1
  H  H138  1  0.28470241  0.94619778  0.33264343  1
  H  H139  1  0.33081862  0.93194224  0.33364687  1
  H  H140  1  0.34633748  0.99410257  0.39780171  1
  H  H141  1  0.31389160  0.03107467  0.39885891  1
  H  H142  1  0.36025803  0.03962245  0.39733746  1
  H  H143  1  0.33971907  0.08875578  0.31038757  1
  H  H144  1  0.36999284  0.10047342  0.32999193  1
  H  H145  1  0.32376176  0.11332869  0.33096467  1
  H  H146  1  0.33384674  0.11399116  0.36330386  1
  H  H147  1  0.34592031  0.08718357  0.38502044  1
  H  H148  1  0.35119056  0.14392447  0.39023144  1
  H  H149  1  0.37347980  0.20110917  0.40322956  1
  H  H150  1  0.47503528  0.17885436  0.37502344  1
  H  H151  1  0.45213143  0.12056717  0.36211922  1
  H  H152  1  0.46871817  0.23364881  0.39526104  1
  H  H153  1  0.39443900  0.25056546  0.41351256  1
  H  H154  1  0.34575949  0.04020544  0.29857205  1
  H  H155  1  0.32934053  0.99530500  0.29878776  1
  H  H156  1  0.33517717  0.02112463  0.26902768  1
  H  H157  1  0.31619810  0.00790543  0.23466257  1
  H  H158  1  0.20530309  0.03213044  0.24948270  1
  H  H159  1  0.22463243  0.04377638  0.28412986  1
  H  H160  1  0.27010890  0.00526469  0.20843156  1
  H  H161  1  0.19119503  0.01708386  0.22144351  1
  H  H162  1  0.94067476  0.09126870  0.12078941  1
  H  H163  1  0.90954078  0.09701134  0.15310478  1
  H  H164  1  0.89666129  0.97960865  0.15448764  1
  H  H165  1  0.92759724  0.97414119  0.12225678  1
  H  H166  1  0.04928270  0.19743052  0.92938351  1
  H  H167  1  0.05791648  0.23669730  0.89906383  1
  H  H168  1  0.08899571  0.13939613  0.86664403  1
  H  H169  1  0.08032256  0.10059390  0.89701251  1
  H  H170  1  0.15143891  0.96419183  0.11535230  1
  H  H171  1  0.18370671  0.95846652  0.14852979  1
  H  H172  1  0.15736825  0.07315628  0.15931031  1
  H  H173  1  0.12541624  0.07869493  0.12627644  1
  H  H174  1  0.01683745  0.86026356  0.92472842  1
  H  H175  1  0.01064701  0.82785746  0.89234496  1
  H  H176  1  0.00981350  0.93251505  0.86119143  1
  H  H177  1  0.01616794  0.96459710  0.89371256  1
  C  C178  1  0.04929218  0.06618805  0.97646110  1
  C  C179  1  0.06930972  0.08344026  0.96210573  1
  C  C180  1  0.10716964  0.08059223  0.96344808  1
  C  C181  1  0.12337375  0.06411687  0.98022668  1
  C  C182  1  0.10152805  0.04894714  0.99452015  1
  C  C183  1  0.02767770  0.97952196  0.97756421  1
  C  C184  1  0.00905131  0.96355184  0.96184496  1
  C  C185  1  0.97131601  0.96231244  0.96214490  1
  C  C186  1  0.95352549  0.97877869  0.97765529  1
  C  C187  1  0.97368632  0.99670655  0.99208461  1
  C  C188  1  0.07560674  0.03672767  0.05127722  1
  C  C189  1  0.09169226  0.05533520  0.06692533  1
  C  C190  1  0.09511361  0.09388836  0.06515539  1
  C  C191  1  0.08238344  0.11189647  0.04796791  1
  C  C192  1  0.06532233  0.09151335  0.03327711  1
  C  C193  1  0.99300088  0.02122696  0.05161905  1
  C  C194  1  0.97756623  0.00342468  0.06768239  1
  C  C195  1  0.97323732  0.96497084  0.06691675  1
  C  C196  1  0.98692551  0.94569715  0.05107523  1
  C  C197  1  0.00470384  0.96502333  0.03647054  1
  C  C198  1  0.62169084  0.55717292  0.56138043  1
  C  C199  1  0.51664451  0.60670294  0.47717536  1
  C  C200  1  0.52180934  0.57569185  0.48980932  1
  C  C201  1  0.55139142  0.57283266  0.50285982  1
  C  C202  1  0.57847603  0.59938216  0.50140240  1
  C  C203  1  0.57513413  0.62857982  0.48699272  1
  C  C204  1  0.54261896  0.63314755  0.47610232  1
  C  C205  1  0.51028998  0.43568875  0.48628343  1
  C  C206  1  0.51088464  0.46245295  0.50161607  1
  C  C207  1  0.53894249  0.48810754  0.50293359  1
  C  C208  1  0.56659215  0.48529926  0.48952413  1
  C  C209  1  0.56872964  0.45536760  0.47656218  1
  C  C210  1  0.54020284  0.43203034  0.47428763  1
  C  C211  1  0.44912667  0.56528912  0.55069098  1
  C  C212  1  0.44748049  0.53334493  0.56236811  1
  C  C213  1  0.47464716  0.50572830  0.56197820  1
  C  C214  1  0.50452989  0.50898597  0.54997978  1
  C  C215  1  0.50532292  0.53821025  0.53645089  1
  C  C216  1  0.47769742  0.56693842  0.53699595  1
  C  C217  1  0.65253237  0.53455040  0.55948605  1
  C  C218  1  0.65049112  0.50089571  0.54982784  1
  C  C219  1  0.62021690  0.49656875  0.53667805  1
  C  C220  1  0.59002043  0.52248219  0.53668186  1
  C  C221  1  0.58962963  0.54948104  0.55113471  1
  C  C222  1  0.84965383  0.44777989  0.62598153  1
  C  C223  1  0.87095598  0.41531834  0.62903169  1
  C  C224  1  0.90572789  0.40980330  0.63930152  1
  C  C225  1  0.92289193  0.37404328  0.63945548  1
  C  C226  1  0.95679782  0.36652281  0.64811472  1
  C  C227  1  0.97478856  0.39440664  0.65776580  1
  C  C228  1  0.95875041  0.43002334  0.65815905  1
  C  C229  1  0.92478656  0.43755043  0.64933795  1
  C  C230  1  0.02321542  0.35077606  0.66838177  1
  C  C231  1  0.05805007  0.35142266  0.68022280  1
  C  C232  1  0.08955105  0.35920488  0.67011224  1
  C  C233  1  0.12157704  0.36222274  0.68149646  1
  C  C234  1  0.12286567  0.36005208  0.70249423  1
  C  C235  1  0.09101857  0.35248625  0.71233714  1
  C  C236  1  0.05885424  0.34709762  0.70126735  1
  C  C237  1  0.02469953  0.33735307  0.71101501  1
  C  C238  1  0.08999832  0.36335365  0.64779733  1
  C  C239  1  0.15790238  0.36735783  0.71310048  1
  C  C240  1  0.15415272  0.37390692  0.67131701  1
  C  C241  1  0.18645644  0.42738324  0.66710249  1
  C  C242  1  0.20895402  0.40539286  0.65532825  1
  C  C243  1  0.24069199  0.41888897  0.64907697  1
  C  C244  1  0.25082444  0.45465178  0.65471483  1
  C  C245  1  0.22670032  0.47707489  0.66594198  1
  C  C246  1  0.19448107  0.46358360  0.67190094  1
  C  C247  1  0.28421523  0.46618332  0.64813423  1
  C  C248  1  0.30647004  0.44208105  0.63752281  1
  C  C249  1  0.09239465  0.35075525  0.73471134  1
  C  C250  1  0.10303940  0.30585378  0.76078092  1
  C  C251  1  0.09484775  0.33265706  0.77493810  1
  C  C252  1  0.08878332  0.32197398  0.79438422  1
  C  C253  1  0.09141121  0.28433314  0.80052256  1
  C  C254  1  0.10133512  0.25799703  0.78595080  1
  C  C255  1  0.10760637  0.26875300  0.76648692  1
  C  C256  1  0.08463206  0.27372921  0.82070046  1
  C  C257  1  0.08640731  0.23761997  0.82775622  1
  C  C258  1  0.65431941  0.81715879  0.41282307  1
  C  C259  1  0.68290857  0.84079188  0.41477178  1
  C  C260  1  0.69223753  0.87127633  0.40184438  1
  C  C261  1  0.72265747  0.89182984  0.40701161  1
  C  C262  1  0.73333434  0.92159075  0.39564562  1
  C  C263  1  0.71386181  0.93238020  0.37832416  1
  C  C264  1  0.68395817  0.91256491  0.37252902  1
  C  C265  1  0.67327610  0.88275561  0.38399303  1
  C  C266  1  0.75162623  0.98486437  0.37243823  1
  C  C267  1  0.75183625  0.01717651  0.35800335  1
  C  C268  1  0.77117737  0.01456951  0.34018824  1
  C  C269  1  0.76876280  0.04412615  0.32616315  1
  C  C270  1  0.74710697  0.07616842  0.32972466  1
  C  C271  1  0.72750406  0.07782705  0.34737190  1
  C  C272  1  0.73051385  0.04938858  0.36197423  1
  C  C273  1  0.71172407  0.05168144  0.38146287  1
  C  C274  1  0.79617719  0.98190869  0.33674742  1
  C  C275  1  0.74577899  0.10667473  0.31426716  1
  C  C276  1  0.78871262  0.04260776  0.30703332  1
  C  C277  1  0.77737165  0.03803223  0.27188584  1
  C  C278  1  0.81406498  0.04172222  0.26901052  1
  C  C279  1  0.82705859  0.04337598  0.24988849  1
  C  C280  1  0.80393161  0.04099038  0.23288658  1
  C  C281  1  0.76679411  0.03671341  0.23632499  1
  C  C282  1  0.75375446  0.03513720  0.25545573  1
  C  C283  1  0.81752063  0.04231072  0.21309065  1
  C  C284  1  0.85335053  0.04614070  0.20863408  1
  C  C285  1  0.70461223  0.11191057  0.35066083  1
  C  C286  1  0.70882336  0.16927240  0.36604518  1
  C  C287  1  0.67209147  0.17572439  0.36138950  1
  C  C288  1  0.65304484  0.20316770  0.37104648  1
  C  C289  1  0.67037564  0.22589593  0.38500588  1
  C  C290  1  0.70809685  0.21984182  0.38864803  1
  C  C291  1  0.72708892  0.19204725  0.37903207  1
  C  C292  1  0.65036155  0.25407345  0.39476531  1
  C  C293  1  0.66565452  0.27722799  0.40865362  1
  C  C294  1  0.79663690  0.63712779  0.63144295  1
  C  C295  1  0.81344975  0.61777205  0.64741405  1
  C  C296  1  0.84795312  0.62585010  0.65491303  1
  C  C297  1  0.86423300  0.60508453  0.67107807  1
  C  C298  1  0.89823861  0.61245914  0.67806745  1
  C  C299  1  0.91640603  0.64117899  0.66916445  1
  C  C300  1  0.90126613  0.66206307  0.65317497  1
  C  C301  1  0.86732400  0.65450607  0.64599316  1
  C  C302  1  0.96315319  0.63112799  0.69381372  1
  C  C303  1  0.99717028  0.64947811  0.69884188  1
  C  C304  1  0.02780510  0.63942458  0.68791058  1
  C  C305  1  0.05871516  0.66018885  0.69022986  1
  C  C306  1  0.05814292  0.69118510  0.70284387  1
  C  C307  1  0.02621583  0.70214147  0.71249072  1
  C  C308  1  0.99526005  0.68125047  0.71074007  1
  C  C309  1  0.96019994  0.69155059  0.72031682  1
  C  C310  1  0.02746008  0.60627890  0.67473525  1
  C  C311  1  0.09211038  0.71172316  0.70492916  1
  C  C312  1  0.09255351  0.64904608  0.67968226  1
  C  C313  1  0.12929792  0.66761333  0.65265029  1
  C  C314  1  0.15338808  0.63770340  0.65680417  1
  C  C315  1  0.18510386  0.63344181  0.64633432  1
  C  C316  1  0.19385073  0.65840845  0.63090376  1
  C  C317  1  0.16834202  0.68816920  0.62693553  1
  C  C318  1  0.13663791  0.69245164  0.63733291  1
  C  C319  1  0.22625594  0.65485798  0.61936469  1
  C  C320  1  0.25368891  0.62720474  0.62084044  1
  C  C321  1  0.02566044  0.73568189  0.72528213  1
  C  C322  1  0.03330390  0.75039986  0.75940779  1
  C  C323  1  0.02313870  0.78717803  0.75465138  1
  C  C324  1  0.01546912  0.81165925  0.76971124  1
  C  C325  1  0.01869227  0.80064157  0.79004507  1
  C  C326  1  0.03019577  0.76335925  0.79435448  1
  C  C327  1  0.03757100  0.73874275  0.77923744  1
  C  C328  1  0.01136651  0.82644137  0.80554199  1
  C  C329  1  0.01348737  0.81732165  0.82562793  1
  C  C330  1  0.42142783  0.78252597  0.40269983  1
  C  C331  1  0.38762206  0.80042301  0.40378427  1
  C  C332  1  0.37979582  0.83623981  0.39573123  1
  C  C333  1  0.34494566  0.85346018  0.39700671  1
  C  C334  1  0.33766842  0.88864679  0.38945115  1
  C  C335  1  0.36508196  0.90727599  0.38022857  1
  C  C336  1  0.39975436  0.89132308  0.37890129  1
  C  C337  1  0.40720061  0.85617786  0.38656940  1
  C  C338  1  0.32238624  0.95609906  0.37093393  1
  C  C339  1  0.32375210  0.99140954  0.35931982  1
  C  C340  1  0.33485457  0.02285350  0.36952765  1
  C  C341  1  0.34045113  0.05527285  0.35842776  1
  C  C342  1  0.33645108  0.05551996  0.33738037  1
  C  C343  1  0.32770902  0.02287219  0.32742066  1
  C  C344  1  0.32090140  0.99045865  0.33830908  1
  C  C345  1  0.31177604  0.95464011  0.32877901  1
  C  C346  1  0.33913359  0.02184936  0.39185172  1
  C  C347  1  0.34281870  0.09100986  0.32654859  1
  C  C348  1  0.35028592  0.08984806  0.36898239  1
  C  C349  1  0.39986002  0.12896520  0.37470603  1
  C  C350  1  0.37831135  0.15149877  0.38662631  1
  C  C351  1  0.39139742  0.18387469  0.39436443  1
  C  C352  1  0.42686411  0.19488810  0.39089975  1
  C  C353  1  0.44793563  0.17125048  0.37860262  1
  C  C354  1  0.43503292  0.13870655  0.37101218  1
  C  C355  1  0.44145175  0.22772394  0.39945022  1
  C  C356  1  0.42365607  0.25241300  0.41206031  1
  C  C357  1  0.32526871  0.02295564  0.30504975  1
  C  C358  1  0.28071352  0.03145181  0.27896058  1
  C  C359  1  0.30661570  0.02224475  0.26493336  1
  C  C360  1  0.29598262  0.01562258  0.24545723  1
  C  C361  1  0.25930756  0.01872617  0.23914582  1
  C  C362  1  0.23378847  0.02919462  0.25363062  1
  C  C363  1  0.24445635  0.03579824  0.27316217  1
  C  C364  1  0.24896576  0.01225201  0.21881450  1
  C  C365  1  0.21383457  0.01442929  0.21144515  1
  C  C366  1  0.68066329  0.47688728  0.55544189  1
  C  C367  1  0.70812281  0.47115218  0.56654624  1
  C  C368  1  0.73700061  0.46531840  0.57854182  1
  C  C369  1  0.76381844  0.46062039  0.59007586  1
  C  C370  1  0.79249209  0.45533410  0.60218309  1
  C  C371  1  0.81939751  0.45036446  0.61352452  1
  C  C372  1  0.59922526  0.44736655  0.46492028  1
  C  C373  1  0.61101738  0.42220540  0.45421593  1
  C  C374  1  0.62064949  0.39337100  0.44366511  1
  C  C375  1  0.62616284  0.36370024  0.43504661  1
  C  C376  1  0.63517280  0.33309028  0.42580398  1
  C  C377  1  0.64642884  0.30519966  0.41717242  1
  C  C378  1  0.41998635  0.59085113  0.55474541  1
  C  C379  1  0.39284242  0.59804450  0.56497045  1
  C  C380  1  0.36415164  0.60545126  0.57591850  1
  C  C381  1  0.33742484  0.61150937  0.58647443  1
  C  C382  1  0.30900780  0.61797048  0.59768478  1
  C  C383  1  0.28234699  0.62403007  0.60819829  1
  C  C384  1  0.59969801  0.65565305  0.48157912  1
  C  C385  1  0.60977538  0.68209667  0.47135275  1
  C  C386  1  0.62013458  0.71011328  0.46015407  1
  C  C387  1  0.62906525  0.73607584  0.44916908  1
  C  C388  1  0.63854611  0.76360434  0.43740269  1
  C  C389  1  0.64742359  0.78939838  0.42636225  1
  C  C390  1  0.48417346  0.40943029  0.48122516  1
  C  C391  1  0.47494597  0.38411061  0.46987277  1
  C  C392  1  0.46544293  0.35731691  0.45771722  1
  C  C393  1  0.45763627  0.33226987  0.44597696  1
  C  C394  1  0.44851983  0.30540110  0.43383501  1
  C  C395  1  0.43946119  0.28007885  0.42264634  1
  C  C396  1  0.47035735  0.47513280  0.57504279  1
  C  C397  1  0.44689361  0.46642477  0.58681547  1
  C  C398  1  0.41916637  0.46279376  0.59812620  1
  C  C399  1  0.39077751  0.46378472  0.60740622  1
  C  C400  1  0.36177382  0.45952528  0.61772929  1
  C  C401  1  0.33498595  0.45401241  0.62758555  1
  C  C402  1  0.48546745  0.61218659  0.46472746  1
  C  C403  1  0.47096346  0.63538089  0.45292532  1
  C  C404  1  0.45785386  0.66222531  0.44112204  1
  C  C405  1  0.44915627  0.69123159  0.43183828  1
  C  C406  1  0.43937055  0.72188110  0.42208630  1
  C  C407  1  0.43006974  0.75066868  0.41293679  1
  C  C408  1  0.62458272  0.58606511  0.57531187  1
  C  C409  1  0.64858069  0.59736824  0.58657305  1
  C  C410  1  0.67689959  0.60571729  0.59737691  1
  C  C411  1  0.70666871  0.61002819  0.60559334  1
  C  C412  1  0.73717572  0.61804151  0.61448194  1
  C  C413  1  0.76575292  0.62563865  0.62285549  1
  C  C414  1  0.96521787  0.02300253  0.08443598  1
  C  C415  1  0.95191345  0.02955557  0.10057995  1
  C  C416  1  0.93543162  0.03263896  0.11917962  1
  C  C417  1  0.93058490  0.06721233  0.12832013  1
  C  C418  1  0.91340677  0.07031037  0.14609972  1
  C  C419  1  0.90006054  0.03884935  0.15572994  1
  C  C420  1  0.90611778  0.00390302  0.14686488  1
  C  C421  1  0.92321081  1.00089880  0.12912365  1
  C  C422  1  0.88177335  0.04186834  0.17374408  1
  C  C423  1  0.86593628  0.04404173  0.18951051  1
  C  C424  1  0.05192032  0.10378926  0.94588871  1
  C  C425  1  0.05552502  0.12378504  0.93116007  1
  C  C426  1  0.06133766  0.14643850  0.91444643  1
  C  C427  1  0.05689212  0.18528156  0.91532564  1
  C  C428  1  0.06202639  0.20681636  0.89875248  1
  C  C429  1  0.07260091  0.19048973  0.88071525  1
  C  C430  1  0.07968060  0.15164437  0.88036904  1
  C  C431  1  0.07457115  0.13027308  0.89691725  1
  C  C432  1  0.07656776  0.21212849  0.86339617  1
  C  C433  1  0.08046019  0.22785782  0.84733936  1
  C  C434  1  0.10504768  0.03520281  0.08391528  1
  C  C435  1  0.11932294  0.02564429  0.09992789  1
  C  C436  1  0.13655236  0.02159759  0.11879665  1
  C  C437  1  0.15306036  0.98758671  0.12523686  1
  C  C438  1  0.17089202  0.98456349  0.14339606  1
  C  C439  1  0.17304126  0.01551159  0.15590845  1
  C  C440  1  0.15596571  0.04962289  0.14949118  1
  C  C441  1  0.13830529  0.05262284  0.13141476  1
  C  C442  1  0.19092980  0.01287596  0.17463397  1
  C  C443  1  0.20488496  0.01225244  0.19141189  1
  C  C444  1  0.02754760  0.94754878  0.94544066  1
  C  C445  1  0.02470313  0.93191664  0.92934582  1
  C  C446  1  0.01993546  0.91405160  0.91103742  1
  C  C447  1  0.01629701  0.87538839  0.91061676  1
  C  C448  1  0.01254212  0.85770788  0.89284258  1
  C  C449  1  0.01147033  0.87808699  0.87460391  1
  C  C450  1  0.01207392  0.91707663  0.87521168  1
  C  C451  1  0.01589924  0.93465584  0.89302483  1
  C  C452  1  0.01002978  0.86022658  0.85615291  1
  C  C453  1  0.01036874  0.84294376  0.84057449  1
  N  N454  1  0.06197125  0.05450459  0.03492736  1
  N  N455  1  0.00614412  0.00242857  0.03618069  1
  N  N456  1  0.06514340  0.04920036  0.99245791  1
  N  N457  1  0.01024491  0.99634418  0.99235083  1
  O  O458  1  0.00799550  0.38862937  0.66661690  1
  O  O459  1  0.10752196  0.31477629  0.74131147  1
  O  O460  1  0.15612142  0.41356798  0.67425642  1
  O  O461  1  0.72290522  0.96087659  0.36621357  1
  O  O462  1  0.72749407  0.14043089  0.35811538  1
  O  O463  1  0.76342237  0.03722350  0.29039010  1
  O  O464  1  0.94973984  0.64958986  0.67547610  1
  O  O465  1  0.03995652  0.72526687  0.74503499  1
  O  O466  1  0.09855860  0.67391344  0.66290997  1
  O  O467  1  0.35961313  0.94179301  0.37254513  1
  O  O468  1  0.28973429  0.03724851  0.29837127  1
  O  O469  1  0.38809080  0.09746017  0.36636657  1
