# generated using pymatgen
data_ZnH186C276(NO2)6
_symmetry_space_group_name_H-M   'P 1'
_cell_length_a   65.71297388
_cell_length_b   65.70694868
_cell_length_c   43.42253512
_cell_angle_alpha   89.96479683
_cell_angle_beta   89.81591540
_cell_angle_gamma   121.31772269
_symmetry_Int_Tables_number   1
_chemical_formula_structural   ZnH186C276(NO2)6
_chemical_formula_sum   'Zn1 H186 C276 N6 O12'
_cell_volume   160170.76098224
_cell_formula_units_Z   1
loop_
 _symmetry_equiv_pos_site_id
 _symmetry_equiv_pos_as_xyz
  1  'x, y, z'
loop_
 _atom_site_type_symbol
 _atom_site_label
 _atom_site_symmetry_multiplicity
 _atom_site_fract_x
 _atom_site_fract_y
 _atom_site_fract_z
 _atom_site_occupancy
  Zn  Zn0  1  0.70559402  0.37051289  0.50686971  1
  H  H1  1  0.01834219  0.98140387  0.00565965  1
  H  H2  1  0.06741082  0.09030070  0.00716221  1
  H  H3  1  0.97591706  0.01370592  0.00606674  1
  H  H4  1  0.93338753  0.36998556  0.80289339  1
  H  H5  1  0.88547522  0.32801247  0.82714083  1
  H  H6  1  0.88176657  0.30438804  0.86493224  1
  H  H7  1  0.89543677  0.29424984  0.91152974  1
  H  H8  1  0.96680414  0.35270843  0.89401653  1
  H  H9  1  0.95308880  0.36323724  0.84707536  1
  H  H10  1  0.91355621  0.28425734  0.94347761  1
  H  H11  1  0.90974976  0.30650697  0.96052906  1
  H  H12  1  0.93062388  0.33968644  0.03011770  1
  H  H13  1  0.90584013  0.31493339  0.01293554  1
  H  H14  1  0.92825728  0.33780608  0.98964048  1
  H  H15  1  0.93893412  0.27760163  0.93318807  1
  H  H16  1  0.92909130  0.25310148  0.95855083  1
  H  H17  1  0.95957505  0.27107500  0.94850485  1
  H  H18  1  0.98093676  0.31236662  0.07811463  1
  H  H19  1  0.99699783  0.30672740  0.04984165  1
  H  H20  1  0.97198934  0.28289893  0.06838279  1
  H  H21  1  0.97182639  0.26497592  0.02746783  1
  H  H22  1  0.96538356  0.26013022  0.98745784  1
  H  H23  1  0.98106392  0.24344131  0.00311194  1
  H  H24  1  0.00456966  0.22502742  0.00224856  1
  H  H25  1  0.06918751  0.29455672  0.99325743  1
  H  H26  1  0.04442679  0.31283445  0.99025029  1
  H  H27  1  0.07070678  0.25491306  0.99781223  1
  H  H28  1  0.02210059  0.21461502  0.02308744  1
  H  H29  1  0.97569338  0.33918034  0.06916861  1
  H  H30  1  0.95210280  0.34348920  0.05965890  1
  H  H31  1  0.97397963  0.36088985  0.10530958  1
  H  H32  1  0.96840125  0.38116910  0.14903230  1
  H  H33  1  0.90464733  0.31513861  0.17518266  1
  H  H34  1  0.91155105  0.29478418  0.13267371  1
  H  H35  1  0.94381049  0.38179001  0.19149179  1
  H  H36  1  0.90814209  0.33148083  0.21631059  1
  H  H37  1  0.46215360  0.16386935  0.21059110  1
  H  H38  1  0.48101399  0.13055032  0.19548350  1
  H  H39  1  0.46144017  0.10373979  0.15302546  1
  H  H40  1  0.43768831  0.09253071  0.10567262  1
  H  H41  1  0.42510752  0.15014844  0.11966681  1
  H  H42  1  0.45010453  0.16238221  0.16612908  1
  H  H43  1  0.40879039  0.08166847  0.07330573  1
  H  H44  1  0.43575850  0.10415451  0.05620877  1
  H  H45  1  0.44932002  0.13909916  0.98785766  1
  H  H46  1  0.44926975  0.11471524  0.00494852  1
  H  H47  1  0.44908339  0.13671625  0.02831028  1
  H  H48  1  0.37671075  0.07673055  0.08443658  1
  H  H49  1  0.36044698  0.05140698  0.06058082  1
  H  H50  1  0.34934272  0.07022696  0.06892102  1
  H  H51  1  0.37039710  0.11122095  0.93988815  1
  H  H52  1  0.34876575  0.10528441  0.96868133  1
  H  H53  1  0.34857616  0.08164229  0.94912235  1
  H  H54  1  0.32974893  0.06317034  0.98996582  1
  H  H55  1  0.33168749  0.05646538  0.02907832  1
  H  H56  1  0.29635787  0.04208365  0.01476441  1
  H  H57  1  0.25415174  0.02876542  0.01040864  1
  H  H58  1  0.27080960  0.10076926  0.02740474  1
  H  H59  1  0.31385400  0.11435832  0.03025144  1
  H  H60  1  0.23066678  0.07092025  0.01988466  1
  H  H61  1  0.21714258  0.01873670  0.00701179  1
  H  H62  1  0.40329986  0.13682444  0.94754421  1
  H  H63  1  0.43153173  0.14194840  0.95781054  1
  H  H64  1  0.42734624  0.15903674  0.91452325  1
  H  H65  1  0.45406946  0.18121608  0.87153650  1
  H  H66  1  0.45006960  0.11697806  0.83961851  1
  H  H67  1  0.42326059  0.09476609  0.88316427  1
  H  H68  1  0.47820958  0.18460671  0.82961433  1
  H  H69  1  0.46810636  0.13815496  0.79790746  1
  H  H70  1  0.69155856  0.58647590  0.81073161  1
  H  H71  1  0.73984451  0.58974400  0.81948529  1
  H  H72  1  0.76120925  0.60617131  0.86375877  1
  H  H73  1  0.77080806  0.63000629  0.91076938  1
  H  H74  1  0.71186667  0.63998716  0.89386388  1
  H  H75  1  0.70207915  0.61594803  0.84644643  1
  H  H76  1  0.78046162  0.65842445  0.94146203  1
  H  H77  1  0.75864646  0.63138737  0.95904515  1
  H  H78  1  0.72410042  0.61731894  0.02773273  1
  H  H79  1  0.74901119  0.61817848  0.01096840  1
  H  H80  1  0.72656475  0.61713440  0.98731512  1
  H  H81  1  0.78683366  0.69048603  0.93124416  1
  H  H82  1  0.81130007  0.70630105  0.95639932  1
  H  H83  1  0.79310162  0.71783417  0.94655136  1
  H  H84  1  0.75137482  0.69567664  0.07631075  1
  H  H85  1  0.75671726  0.71768166  0.04824047  1
  H  H86  1  0.78071888  0.71769430  0.06640313  1
  H  H87  1  0.79877155  0.73634594  0.02559980  1
  H  H88  1  0.80402887  0.73499813  0.98563044  1
  H  H89  1  0.82061659  0.76787678  0.00145275  1
  H  H90  1  0.83926844  0.81051366  0.00060967  1
  H  H91  1  0.77007321  0.80334410  0.99052878  1
  H  H92  1  0.75157418  0.75955317  0.98771798  1
  H  H93  1  0.80993712  0.84601408  0.99465068  1
  H  H94  1  0.84973922  0.83917829  0.02093480  1
  H  H95  1  0.72426982  0.66262268  0.06664264  1
  H  H96  1  0.72087375  0.63474573  0.05813460  1
  H  H97  1  0.70317163  0.63880094  0.10194026  1
  H  H98  1  0.68244586  0.61164421  0.14527629  1
  H  H99  1  0.74826832  0.61680200  0.17217939  1
  H  H100  1  0.76935718  0.64578311  0.13021311  1
  H  H101  1  0.68197732  0.58626379  0.18766972  1
  H  H102  1  0.73184706  0.60738261  0.21593263  1
  H  H103  1  0.67720485  0.34039240  0.56682475  1
  H  H104  1  0.62762953  0.36885583  0.52141013  1
  H  H105  1  0.61183023  0.34091915  0.56577114  1
  H  H106  1  0.71759322  0.40459195  0.44792826  1
  H  H107  1  0.64956165  0.40239121  0.50001339  1
  H  H108  1  0.66842707  0.42921224  0.45488922  1
  H  H109  1  0.70254852  0.39639399  0.56870510  1
  H  H110  1  0.78535574  0.44589835  0.53156340  1
  H  H111  1  0.77372290  0.45588457  0.58087338  1
  H  H112  1  0.67430041  0.35136173  0.44553314  1
  H  H113  1  0.67691019  0.28290701  0.48780314  1
  H  H114  1  0.65292941  0.27720862  0.44137521  1
  H  H115  1  0.72895141  0.36190341  0.44676716  1
  H  H116  1  0.79550448  0.42872027  0.50238670  1
  H  H117  1  0.80429473  0.41192666  0.45699208  1
  H  H118  1  0.73545852  0.37029174  0.56604008  1
  H  H119  1  0.70440676  0.29213518  0.51676873  1
  H  H120  1  0.73080275  0.30240941  0.56160587  1
  H  H121  1  0.90123528  0.39138018  0.71781522  1
  H  H122  1  0.84203359  0.32609369  0.75333599  1
  H  H123  1  0.86798266  0.32280163  0.78985332  1
  H  H124  1  0.92714591  0.39025686  0.75756906  1
  H  H125  1  0.76196462  0.32013697  0.65624095  1
  H  H126  1  0.73083203  0.31307982  0.61869217  1
  H  H127  1  0.77989216  0.37918046  0.57317838  1
  H  H128  1  0.81155226  0.38524588  0.60912049  1
  H  H129  1  0.54963305  0.22016465  0.23635331  1
  H  H130  1  0.50560117  0.17511229  0.31068669  1
  H  H131  1  0.47474443  0.14884387  0.27341849  1
  H  H132  1  0.51913608  0.19363697  0.19883890  1
  H  H133  1  0.58749275  0.25603380  0.41426404  1
  H  H134  1  0.61609156  0.28568526  0.45183819  1
  H  H135  1  0.66249262  0.32785041  0.37741271  1
  H  H136  1  0.63315259  0.29945677  0.33978244  1
  H  H137  1  0.50271101  0.18803218  0.70458401  1
  H  H138  1  0.55231003  0.22217440  0.77898688  1
  H  H139  1  0.52274655  0.19318420  0.81561398  1
  H  H140  1  0.47377945  0.15769857  0.74060407  1
  H  H141  1  0.63388056  0.30857791  0.67134524  1
  H  H142  1  0.65979216  0.33817654  0.63210383  1
  H  H143  1  0.60557120  0.30055518  0.56361692  1
  H  H144  1  0.58008248  0.26995666  0.60248105  1
  H  H145  1  0.67514038  0.51320246  0.24096430  1
  H  H146  1  0.71929286  0.56703965  0.30713000  1
  H  H147  1  0.72463926  0.59835835  0.27069119  1
  H  H148  1  0.67904585  0.54432915  0.20534392  1
  H  H149  1  0.72425439  0.49086587  0.40575251  1
  H  H150  1  0.72551068  0.46291195  0.44308069  1
  H  H151  1  0.67880907  0.40369303  0.38465324  1
  H  H152  1  0.67839309  0.43166861  0.34685603  1
  H  H153  1  0.67193004  0.51375981  0.75122931  1
  H  H154  1  0.74148016  0.56999857  0.72188446  1
  H  H155  1  0.74024920  0.59682193  0.76035636  1
  H  H156  1  0.66951026  0.54120966  0.78754533  1
  H  H157  1  0.75291056  0.49786169  0.62509553  1
  H  H158  1  0.75817990  0.47607632  0.58265908  1
  H  H159  1  0.69399345  0.41151372  0.61055960  1
  H  H160  1  0.68562767  0.43472855  0.64741772  1
  H  H161  1  0.88648410  0.39783268  0.25121920  1
  H  H162  1  0.87813784  0.33949041  0.30649043  1
  H  H163  1  0.90257317  0.33296402  0.26928224  1
  H  H164  1  0.91110429  0.39155881  0.21412795  1
  H  H165  1  0.79866931  0.34184233  0.40886315  1
  H  H166  1  0.77119297  0.34510824  0.44451148  1
  H  H167  1  0.77962528  0.40501226  0.39247777  1
  H  H168  1  0.80640873  0.40107799  0.35600772  1
  H  H169  1  0.03762869  0.12127923  0.06010787  1
  H  H170  1  0.04376525  0.16410847  0.05968532  1
  H  H171  1  0.00786350  0.14971907  0.98234882  1
  H  H172  1  0.00300899  0.10716598  0.97949533  1
  H  H173  1  0.06521494  0.13234066  0.97242585  1
  H  H174  1  0.07332916  0.17605758  0.97470327  1
  H  H175  1  0.09921689  0.00788356  0.97177244  1
  H  H176  1  0.13628588  0.00249693  0.97379710  1
  H  H177  1  0.15104915  0.02861588  0.06086437  1
  H  H178  1  0.11346017  0.03277938  0.06056893  1
  H  H179  1  0.13589796  0.06989181  0.98094787  1
  H  H180  1  0.17445475  0.06687660  0.98334939  1
  H  H181  1  0.93834344  0.96152909  0.95953387  1
  H  H182  1  0.89460527  0.92435715  0.95962269  1
  H  H183  1  0.89528664  0.92037389  0.05317440  1
  H  H184  1  0.93850157  0.95830108  0.05436920  1
  H  H185  1  0.96074786  0.92717883  0.00315505  1
  H  H186  1  0.91738199  0.88891606  0.00415270  1
  C  C187  1  0.05432169  0.03673620  0.00734574  1
  C  C188  1  0.05193865  0.05680960  0.00723479  1
  C  C189  1  0.02981155  0.05562342  0.00728080  1
  C  C190  1  0.00923984  0.03270332  0.00682112  1
  C  C191  1  0.01009080  0.01169633  0.00663111  1
  C  C192  1  0.03289585  0.01455217  0.00673627  1
  C  C193  1  0.91442527  0.35648314  0.80344741  1
  C  C194  1  0.90477133  0.33979682  0.82638050  1
  C  C195  1  0.91583509  0.33514974  0.85254128  1
  C  C196  1  0.90042295  0.31543834  0.87142649  1
  C  C197  1  0.90810820  0.30973114  0.89799439  1
  C  C198  1  0.93189252  0.32368984  0.90684654  1
  C  C199  1  0.94801915  0.34244146  0.88772586  1
  C  C200  1  0.94016239  0.34825618  0.86112653  1
  C  C201  1  0.92311075  0.30173570  0.95498967  1
  C  C202  1  0.93620184  0.30090020  0.98299358  1
  C  C203  1  0.94708616  0.28720283  0.98146310  1
  C  C204  1  0.96055265  0.28746936  0.00688395  1
  C  C205  1  0.96340159  0.30103035  0.03355562  1
  C  C206  1  0.95219222  0.31444108  0.03495608  1
  C  C207  1  0.93826912  0.31414797  0.00990067  1
  C  C208  1  0.92524550  0.32732588  0.01075590  1
  C  C209  1  0.94357843  0.27165060  0.95415946  1
  C  C210  1  0.97901914  0.30088475  0.05871149  1
  C  C211  1  0.97302647  0.27386615  0.00539704  1
  C  C212  1  0.01136690  0.27956109  0.99800780  1
  C  C213  1  1.00037167  0.25490196  0.00140466  1
  C  C214  1  0.01398352  0.24443481  0.00194053  1
  C  C215  1  0.03917427  0.25824502  0.00026807  1
  C  C216  1  0.04988294  0.28329978  0.99555357  1
  C  C217  1  0.03611713  0.29370418  0.99411748  1
  C  C218  1  0.05159263  0.24565655  0.00220020  1
  C  C219  1  0.03911411  0.22183678  0.01078513  1
  C  C220  1  0.95662833  0.32973504  0.06303266  1
  C  C221  1  0.94172229  0.32691012  0.11450471  1
  C  C222  1  0.95829856  0.35101616  0.11999223  1
  C  C223  1  0.95529497  0.36239237  0.14507394  1
  C  C224  1  0.93578648  0.35023549  0.16562724  1
  C  C225  1  0.92014848  0.32545688  0.16040385  1
  C  C226  1  0.92358588  0.31388899  0.13592330  1
  C  C227  1  0.93175075  0.36249957  0.19064712  1
  C  C228  1  0.91560555  0.35062338  0.21363586  1
  C  C229  1  0.47452967  0.15740301  0.21123271  1
  C  C230  1  0.47220697  0.14050679  0.19114635  1
  C  C231  1  0.45743177  0.13362382  0.16388404  1
  C  C232  1  0.45367641  0.11411791  0.14569282  1
  C  C233  1  0.44044573  0.10792300  0.11874996  1
  C  C234  1  0.43065190  0.12132085  0.10901815  1
  C  C235  1  0.43335818  0.14021889  0.12700720  1
  C  C236  1  0.44701600  0.14667328  0.15360374  1
  C  C237  1  0.41730842  0.09907116  0.06151350  1
  C  C238  1  0.40342185  0.09828024  0.03361393  1
  C  C239  1  0.37833045  0.08473390  0.03551973  1
  C  C240  1  0.36505663  0.08453345  0.00998178  1
  C  C241  1  0.37624167  0.09886110  0.98370174  1
  C  C242  1  0.40139957  0.11248525  0.98226424  1
  C  C243  1  0.41515395  0.11222194  0.00714205  1
  C  C244  1  0.44190830  0.12639744  0.00695984  1
  C  C245  1  0.36570882  0.07020773  0.06367855  1
  C  C246  1  0.36044505  0.09939669  0.95913319  1
  C  C247  1  0.33845494  0.07100626  0.01210984  1
  C  C248  1  0.30770275  0.07928211  0.02135951  1
  C  C249  1  0.29092624  0.05513929  0.01660501  1
  C  C250  1  0.26695663  0.04754184  0.01480434  1
  C  C251  1  0.25907257  0.06382977  0.01841531  1
  C  C252  1  0.27657364  0.08806962  0.02433986  1
  C  C253  1  0.30053489  0.09570378  0.02592477  1
  C  C254  1  0.23452210  0.05680431  0.01652677  1
  C  C255  1  0.21521418  0.03407574  0.01091981  1
  C  C256  1  0.41287604  0.12782379  0.95421152  1
  C  C257  1  0.42528928  0.12582932  0.90310619  1
  C  C258  1  0.43305353  0.14991686  0.89897669  1
  C  C259  1  0.44775158  0.16233976  0.87425200  1
  C  C260  1  0.45481284  0.15122973  0.85239503  1
  C  C261  1  0.44534125  0.12641176  0.85602648  1
  C  C262  1  0.43042651  0.11383998  0.88070227  1
  C  C263  1  0.47136229  0.16551956  0.82800863  1
  C  C264  1  0.47750883  0.15716828  0.80320563  1
  C  C265  1  0.70699375  0.58507200  0.80518919  1
  C  C266  1  0.72641406  0.59446039  0.82383817  1
  C  C267  1  0.73074119  0.60869859  0.85140528  1
  C  C268  1  0.75023501  0.61346540  0.87028961  1
  C  C269  1  0.75549391  0.62669889  0.89711020  1
  C  C270  1  0.74122136  0.63567639  0.90604828  1
  C  C271  1  0.72237933  0.63217917  0.88725985  1
  C  C272  1  0.71701312  0.61868068  0.86049454  1
  C  C273  1  0.76315752  0.64963157  0.95352498  1
  C  C274  1  0.76385380  0.66351335  0.98141529  1
  C  C275  1  0.77720531  0.68862860  0.97963867  1
  C  C276  1  0.77658208  0.70175197  0.00493784  1
  C  C277  1  0.76284999  0.69035703  0.03152219  1
  C  C278  1  0.74947363  0.66520345  0.03279136  1
  C  C279  1  0.75010029  0.65160619  0.00795181  1
  C  C280  1  0.73677141  0.62485731  0.00858601  1
  C  C281  1  0.79270287  0.70132975  0.95218834  1
  C  C282  1  0.76276744  0.70590820  0.05686024  1
  C  C283  1  0.79011853  0.72835682  0.00346277  1
  C  C284  1  0.78463198  0.76083239  0.99585151  1
  C  C285  1  0.80925710  0.77536209  0.99950538  1
  C  C286  1  0.81986820  0.79988090  -0.00003760  1
  C  C287  1  0.80627841  0.81091215  0.99781986  1
  C  C288  1  0.78123220  0.79565829  0.99301578  1
  C  C289  1  0.77067950  0.77104126  0.99171475  1
  C  C290  1  0.81908590  0.83647696  0.99934217  1
  C  C291  1  0.84285253  0.84869115  0.00801703  1
  C  C292  1  0.73420142  0.65377738  0.06086668  1
  C  C293  1  0.73727827  0.64246075  0.11198672  1
  C  C294  1  0.71297769  0.63352486  0.11684088  1
  C  C295  1  0.70135329  0.61845316  0.14161251  1
  C  C296  1  0.71356641  0.61199147  0.16244316  1
  C  C297  1  0.73836989  0.62206616  0.15748464  1
  C  C298  1  0.75021254  0.63783569  0.13335069  1
  C  C299  1  0.70139734  0.59537612  0.18753722  1
  C  C300  1  0.71338589  0.59327459  0.21171034  1
  C  C301  1  0.66154534  0.37065972  0.52164880  1
  C  C302  1  0.66629661  0.34716886  0.55793769  1
  C  C303  1  0.63880280  0.36341686  0.53270391  1
  C  C304  1  0.64429244  0.34039264  0.57127196  1
  C  C305  1  0.62977608  0.34741024  0.55704496  1
  C  C306  1  0.68994305  0.32080792  0.49060177  1
  C  C307  1  0.67483803  0.33602232  0.45418948  1
  C  C308  1  0.67722932  0.29814430  0.47748367  1
  C  C309  1  0.66139845  0.31365045  0.44050643  1
  C  C310  1  0.66300678  0.29466830  0.45224175  1
  C  C311  1  0.75075683  0.41361916  0.52562428  1
  C  C312  1  0.72080150  0.40786754  0.56045688  1
  C  C313  1  0.76742371  0.43451086  0.54062965  1
  C  C314  1  0.73610940  0.42998342  0.57440421  1
  C  C315  1  0.76029026  0.44197036  0.56618990  1
  C  C316  1  0.75718836  0.40462356  0.49879885  1
  C  C317  1  0.74400452  0.37663242  0.45875202  1
  C  C318  1  0.78087261  0.41452893  0.48947301  1
  C  C319  1  0.76735480  0.38536741  0.44898218  1
  C  C320  1  0.78592211  0.40502190  0.46417667  1
  C  C321  1  0.70541432  0.32573020  0.51719835  1
  C  C322  1  0.72938939  0.35319229  0.55488696  1
  C  C323  1  0.71072587  0.30905815  0.52830031  1
  C  C324  1  0.73607105  0.33765868  0.56646834  1
  C  C325  1  0.72577967  0.31490405  0.55344617  1
  C  C326  1  0.67242860  0.38773920  0.49638768  1
  C  C327  1  0.70189211  0.40361387  0.45818546  1
  C  C328  1  0.66364039  0.40208962  0.48721727  1
  C  C329  1  0.69210062  0.41621315  0.44584125  1
  C  C330  1  0.67415733  0.41710348  0.46223207  1
  C  C331  1  0.89396052  0.37680958  0.73448703  1
  C  C332  1  0.86934140  0.35904640  0.73256575  1
  C  C333  1  0.86083036  0.34008563  0.75427200  1
  C  C334  1  0.87546596  0.33886725  0.77583799  1
  C  C335  1  0.89974226  0.35734670  0.77901680  1
  C  C336  1  0.90847343  0.37605040  0.75684576  1
  C  C337  1  0.85377906  0.35931965  0.71071440  1
  C  C338  1  0.83912634  0.35840517  0.69238476  1
  C  C339  1  0.82275139  0.35693291  0.67275139  1
  C  C340  1  0.80755552  0.35537418  0.65488244  1
  C  C341  1  0.78966358  0.35256992  0.63461459  1
  C  C342  1  0.76609414  0.33256310  0.63722936  1
  C  C343  1  0.74881730  0.32842576  0.61599545  1
  C  C344  1  0.75377246  0.34448909  0.59156313  1
  C  C345  1  0.77607662  0.36586232  0.59085591  1
  C  C346  1  0.79380891  0.36938945  0.61115464  1
  C  C347  1  0.53319502  0.20437675  0.24412783  1
  C  C348  1  0.52963422  0.19975216  0.27628496  1
  C  C349  1  0.50824777  0.17901577  0.28608839  1
  C  C350  1  0.49096299  0.16467803  0.26529195  1
  C  C351  1  0.49409204  0.17010641  0.23347338  1
  C  C352  1  0.51608636  0.18974346  0.22338917  1
  C  C353  1  0.54666269  0.21510115  0.29745652  1
  C  C354  1  0.56144997  0.22920065  0.31571059  1
  C  C355  1  0.57749725  0.24467770  0.33546486  1
  C  C356  1  0.59216287  0.25901500  0.35362501  1
  C  C357  1  0.60851077  0.27566646  0.37441918  1
  C  C358  1  0.60360932  0.27217502  0.40649257  1
  C  C359  1  0.61984427  0.28796607  0.42720600  1
  C  C360  1  0.64245003  0.30620414  0.41698690  1
  C  C361  1  0.64626240  0.31200888  0.38546678  1
  C  C362  1  0.62973830  0.29657034  0.36446350  1
  C  C363  1  0.50700139  0.18880615  0.72896513  1
  C  C364  1  0.52955995  0.20771641  0.73911109  1
  C  C365  1  0.53475612  0.20833900  0.77099036  1
  C  C366  1  0.51813504  0.19214783  0.79135609  1
  C  C367  1  0.49556898  0.17340210  0.78115066  1
  C  C368  1  0.49090948  0.17191172  0.74913216  1
  C  C369  1  0.54595965  0.22482903  0.71855742  1
  C  C370  1  0.56010256  0.23979735  0.70029119  1
  C  C371  1  0.57547705  0.25606963  0.68040491  1
  C  C372  1  0.58950441  0.27094640  0.66197806  1
  C  C373  1  0.60472009  0.28766593  0.64011450  1
  C  C374  1  0.62778322  0.30696899  0.64765203  1
  C  C375  1  0.64216147  0.32357867  0.62573704  1
  C  C376  1  0.63317789  0.32230758  0.59603226  1
  C  C377  1  0.61111367  0.30238184  0.58757776  1
  C  C378  1  0.59726610  0.28529789  0.60894535  1
  C  C379  1  0.68596966  0.53197864  0.24716216  1
  C  C380  1  0.69785708  0.53787250  0.27598139  1
  C  C381  1  0.71110221  0.56235238  0.28439481  1
  C  C382  1  0.71435506  0.57969953  0.26397260  1
  C  C383  1  0.70450554  0.57393198  0.23399492  1
  C  C384  1  0.68862023  0.54948112  0.22710207  1
  C  C385  1  0.69697402  0.52092288  0.29628152  1
  C  C386  1  0.69764423  0.50706106  0.31454669  1
  C  C387  1  0.69877929  0.49230449  0.33458674  1
  C  C388  1  0.69984198  0.47875377  0.35299357  1
  C  C389  1  0.70101492  0.46317427  0.37382759  1
  C  C390  1  0.71481262  0.47180288  0.40108126  1
  C  C391  1  0.71489115  0.45624075  0.42221038  1
  C  C392  1  0.70030677  0.43153332  0.41766572  1
  C  C393  1  0.68859770  0.42275396  0.38938136  1
  C  C394  1  0.68871632  0.43828510  0.36798547  1
  C  C395  1  0.68677739  0.53208881  0.75330590  1
  C  C396  1  0.70734379  0.53938259  0.73473399  1
  C  C397  1  0.72615907  0.56358516  0.73724591  1
  C  C398  1  0.72547986  0.57842543  0.75897434  1
  C  C399  1  0.70553962  0.57054821  0.77890253  1
  C  C400  1  0.68559162  0.54740506  0.77380157  1
  C  C401  1  0.70890003  0.52361921  0.71460645  1
  C  C402  1  0.71072034  0.50990481  0.69726604  1
  C  C403  1  0.71272121  0.49499457  0.67837265  1
  C  C404  1  0.71500042  0.48175185  0.66069114  1
  C  C405  1  0.71882192  0.46794384  0.63955315  1
  C  C406  1  0.73997709  0.47897765  0.62148741  1
  C  C407  1  0.74401922  0.46644717  0.59947637  1
  C  C408  1  0.72852889  0.44157322  0.59662153  1
  C  C409  1  0.70696878  0.43042556  0.61344717  1
  C  C410  1  0.70224751  0.44337923  0.63431455  1
  C  C411  1  0.88983289  0.38339018  0.25474826  1
  C  C412  1  0.87934989  0.36837145  0.28085865  1
  C  C413  1  0.88508971  0.35052757  0.28583590  1
  C  C414  1  0.89831007  0.34663773  0.26481324  1
  C  C415  1  0.90657303  0.35989656  0.23705757  1
  C  C416  1  0.90337989  0.37957111  0.23377325  1
  C  C417  1  0.86418516  0.37029645  0.30181751  1
  C  C418  1  0.85025281  0.37041458  0.32057892  1
  C  C419  1  0.83499325  0.37035409  0.34104900  1
  C  C420  1  0.82092607  0.37039193  0.35964291  1
  C  C421  1  0.80495401  0.37147636  0.38005436  1
  C  C422  1  0.79421753  0.35548860  0.40515866  1
  C  C423  1  0.77921826  0.35767886  0.42545587  1
  C  C424  1  0.77532673  0.37666892  0.42239004  1
  C  C425  1  0.78419766  0.39147023  0.39621050  1
  C  C426  1  0.79866645  0.38897285  0.37557744  1
  C  C427  1  0.03626997  0.12093449  0.00803828  1
  C  C428  1  0.03927438  0.13170435  0.03970321  1
  C  C429  1  0.04244688  0.15358494  0.03952907  1
  C  C430  1  0.04256789  0.16303414  0.00773842  1
  C  C431  1  0.01944863  0.14436584  0.99285175  1
  C  C432  1  0.01646910  0.12251307  0.99235815  1
  C  C433  1  0.05713415  0.13888201  0.98843914  1
  C  C434  1  0.06082449  0.16101952  0.98898251  1
  C  C435  1  0.03293391  0.09719700  0.00801840  1
  C  C436  1  0.02928897  0.07688665  0.00776801  1
  C  C437  1  0.04584311  0.18666688  0.00758741  1
  C  C438  1  0.04691508  0.20588753  0.00747380  1
  C  C439  1  0.11597702  0.03594794  0.00862589  1
  C  C440  1  0.11389133  0.01624654  0.98806594  1
  C  C441  1  0.13294903  0.01378637  0.98873664  1
  C  C442  1  0.15288294  0.03192143  0.00895714  1
  C  C443  1  0.14237243  0.03039086  0.04052935  1
  C  C444  1  0.12317038  0.03251127  0.04034086  1
  C  C445  1  0.13790977  0.05679959  0.99379125  1
  C  C446  1  0.15735605  0.05496329  0.99446565  1
  C  C447  1  0.09488703  0.03779870  0.00841321  1
  C  C448  1  0.07656875  0.03837109  0.00794585  1
  C  C449  1  0.17359754  0.02962117  0.00946778  1
  C  C450  1  0.19237234  0.02986630  0.00981527  1
  C  C451  1  0.94443857  0.95025220  0.00587258  1
  C  C452  1  0.92963836  0.94903179  0.97848734  1
  C  C453  1  0.90754039  0.92975603  0.97817885  1
  C  C454  1  0.90224117  0.91299486  0.00491004  1
  C  C455  1  0.90778727  0.92761648  0.03392686  1
  C  C456  1  0.92975789  0.94712671  0.03440098  1
  C  C457  1  0.94401993  0.92692283  0.00425343  1
  C  C458  1  0.92196887  0.90745218  0.00409485  1
  C  C459  1  0.96823625  0.97162899  0.00619003  1
  C  C460  1  0.98883808  0.98875966  0.00636567  1
  C  C461  1  0.87848588  0.89178831  0.00428029  1
  C  C462  1  0.85914460  0.87298473  0.00412885  1
  N  N463  1  0.67426255  0.36134582  0.53313039  1
  N  N464  1  0.72786295  0.40052142  0.53620516  1
  N  N465  1  0.69228956  0.38987408  0.48318373  1
  N  N466  1  0.68832071  0.33920979  0.47892568  1
  N  N467  1  0.73922711  0.38597649  0.48314605  1
  N  N468  1  0.71456080  0.34735515  0.53095372  1
  O  O469  1  0.03472440  -0.00508598  0.00613780  1
  O  O470  1  0.07232832  0.07853016  0.00701848  1
  O  O471  1  0.98772488  0.03086194  0.00640613  1
  O  O472  1  0.94032282  0.31938158  0.93318672  1
  O  O473  1  0.94279377  0.31512823  0.08927998  1
  O  O474  1  0.99822152  0.29011025  0.99833278  1
  O  O475  1  0.41781602  0.11659370  0.08267653  1
  O  O476  1  0.41236997  0.11340018  0.92829229  1
  O  O477  1  0.33145231  0.08775610  0.02180950  1
  O  O478  1  0.74512650  0.64825151  0.93250457  1
  O  O479  1  0.74914397  0.65612322  0.08701240  1
  O  O480  1  0.77398107  0.73670468  0.99618178  1
