# generated using pymatgen
data_Zn2AgH147C207N3O22
_symmetry_space_group_name_H-M   'P 1'
_cell_length_a   60.95629481
_cell_length_b   67.70631751
_cell_length_c   36.30477775
_cell_angle_alpha   88.77746808
_cell_angle_beta   91.01649405
_cell_angle_gamma   121.94254224
_symmetry_Int_Tables_number   1
_chemical_formula_structural   Zn2AgH147C207N3O22
_chemical_formula_sum   'Zn2 Ag1 H147 C207 N3 O22'
_cell_volume   127113.72082407
_cell_formula_units_Z   1
loop_
 _symmetry_equiv_pos_site_id
 _symmetry_equiv_pos_as_xyz
  1  'x, y, z'
loop_
 _atom_site_type_symbol
 _atom_site_label
 _atom_site_symmetry_multiplicity
 _atom_site_fract_x
 _atom_site_fract_y
 _atom_site_fract_z
 _atom_site_occupancy
  Zn  Zn0  1  0.74115998  0.40552444  0.55334349  1
  Zn  Zn1  1  0.74461741  0.40041866  0.45423360  1
  Ag  Ag2  1  0.01408016  0.02118191  0.99537309  1
  H  H3  1  0.91209565  0.37466961  0.77725015  1
  H  H4  1  0.85541919  0.33520961  0.79343652  1
  H  H5  1  0.84644300  0.30968208  0.84369515  1
  H  H6  1  0.85947470  0.29623164  0.89844597  1
  H  H7  1  0.93917135  0.35025565  0.88006173  1
  H  H8  1  0.92629172  0.36385030  0.82478004  1
  H  H9  1  0.87731626  0.28332987  0.93535518  1
  H  H10  1  0.87553737  0.30583432  0.95626141  1
  H  H11  1  0.90201052  0.33873349  0.03705431  1
  H  H12  1  0.87495550  0.31637041  0.01357072  1
  H  H13  1  0.90140128  0.33859319  0.98827500  1
  H  H14  1  0.90259400  0.27495655  0.92260649  1
  H  H15  1  0.89073233  0.25105167  0.95370786  1
  H  H16  1  0.92354934  0.26664450  0.94009518  1
  H  H17  1  0.95523970  0.30963171  0.09281323  1
  H  H18  1  0.97040310  0.30221562  0.05909982  1
  H  H19  1  0.94264948  0.28026278  0.08227657  1
  H  H20  1  0.93955606  0.26102341  0.03335763  1
  H  H21  1  0.93240860  0.25737700  0.98537913  1
  H  H22  1  0.94812432  0.23935006  0.00169731  1
  H  H23  1  0.97244497  0.22068457  -0.00836117  1
  H  H24  1  0.04397999  0.28766739  0.98928617  1
  H  H25  1  0.01854394  0.30660340  0.98784363  1
  H  H26  1  0.04226363  0.24642084  0.99050120  1
  H  H27  1  0.99313019  0.21506379  0.03499469  1
  H  H28  1  0.95258492  0.33707144  0.08198169  1
  H  H29  1  0.93046027  0.34497068  0.06716273  1
  H  H30  1  0.95081924  0.36141866  0.12304830  1
  H  H31  1  0.94504236  0.38182582  0.17343718  1
  H  H32  1  0.87195213  0.31904918  0.20034785  1
  H  H33  1  0.87912207  0.29850800  0.15149192  1
  H  H34  1  0.91713996  0.38298631  0.22293472  1
  H  H35  1  0.87226955  0.33389189  0.24633031  1
  H  H36  1  0.54804085  0.24550723  0.23111043  1
  H  H37  1  0.57292983  0.21641801  0.21918392  1
  H  H38  1  0.55024206  0.18592601  0.17080410  1
  H  H39  1  0.52074029  0.17009606  0.11764414  1
  H  H40  1  0.50135760  0.22242071  0.12936848  1
  H  H41  1  0.53237750  0.23962508  0.18087781  1
  H  H42  1  0.48352263  0.15389704  0.08158677  1
  H  H43  1  0.51170023  0.17616759  0.05915326  1
  H  H44  1  0.52396958  0.21079824  0.97893988  1
  H  H45  1  0.52514191  0.18824727  1.00198426  1
  H  H46  1  0.52422113  0.20973269  0.02764965  1
  H  H47  1  0.44789693  0.14591424  0.09454674  1
  H  H48  1  0.43157170  0.12186348  0.06471842  1
  H  H49  1  0.41732005  0.13781070  0.07675298  1
  H  H50  1  0.43713452  0.18125700  0.92310397  1
  H  H51  1  0.41268427  0.17296098  0.95648665  1
  H  H52  1  0.41543337  0.15165268  0.93351167  1
  H  H53  1  0.39580742  0.13101505  0.98175230  1
  H  H54  1  0.39749852  0.12612635  0.02970899  1
  H  H55  1  0.35916659  0.10810141  0.00882987  1
  H  H56  1  0.31263023  0.08980573  0.00836966  1
  H  H57  1  0.32134474  0.15668185  0.02616938  1
  H  H58  1  0.36897132  0.17513615  0.02691359  1
  H  H59  1  0.27798422  0.12260348  0.02040404  1
  H  H60  1  0.27498223  0.07693259  -0.00014211  1
  H  H61  1  0.47153733  0.20819975  0.93347008  1
  H  H62  1  0.50294187  0.21606365  0.94782901  1
  H  H63  1  0.50103660  0.23233693  0.89639653  1
  H  H64  1  0.53330543  0.25593210  0.84894584  1
  H  H65  1  0.53237708  0.19475727  0.81389678  1
  H  H66  1  0.50134567  0.17165793  0.86339883  1
  H  H67  1  0.56013854  0.25991130  0.79888266  1
  H  H68  1  0.55901772  0.21595594  0.77264091  1
  H  H69  1  0.67452479  0.53584469  0.76984601  1
  H  H70  1  0.72646306  0.54005328  0.79056227  1
  H  H71  1  0.75120859  0.56193194  0.83995996  1
  H  H72  1  0.76006883  0.58726263  0.89272473  1
  H  H73  1  0.68885009  0.58488690  0.87134474  1
  H  H74  1  0.67993601  0.55961156  0.81786953  1
  H  H75  1  0.76766718  0.61634069  0.92636063  1
  H  H76  1  0.74771104  0.58936783  0.94932831  1
  H  H77  1  0.70931331  0.57130207  0.02926644  1
  H  H78  1  0.73695363  0.57606013  0.00636134  1
  H  H79  1  0.70986975  0.57167220  0.98050272  1
  H  H80  1  0.77140438  0.64608479  0.91399605  1
  H  H81  1  0.79694746  0.66316280  0.94521114  1
  H  H82  1  0.77517154  0.67174105  0.93123193  1
  H  H83  1  0.72662685  0.64524702  0.08383669  1
  H  H84  1  0.73107946  0.66639111  0.04992661  1
  H  H85  1  0.75792461  0.66871269  0.07341622  1
  H  H86  1  0.77947731  0.68855870  0.02599511  1
  H  H87  1  0.78476299  0.68860427  0.97801030  1
  H  H88  1  0.80062694  0.72234331  0.99753289  1
  H  H89  1  0.81486876  0.76353762  -0.00369817  1
  H  H90  1  0.73563615  0.74529914  0.98334716  1
  H  H91  1  0.72150625  0.70359442  0.98112023  1
  H  H92  1  0.77254579  0.78769128  0.98379812  1
  H  H93  1  0.81859332  0.79243196  0.02786534  1
  H  H94  1  0.69994795  0.61175321  0.07329627  1
  H  H95  1  0.69762965  0.58592806  0.05914493  1
  H  H96  1  0.67666881  0.58041152  0.11534894  1
  H  H97  1  0.65962504  0.55247584  0.16702566  1
  H  H98  1  0.73719908  0.56932120  0.19373709  1
  H  H99  1  0.75424435  0.59946824  0.14477780  1
  H  H100  1  0.66684856  0.52894008  0.21716624  1
  H  H101  1  0.72379401  0.55558438  0.24352326  1
  H  H102  1  0.86786290  0.36967866  0.64974215  1
  H  H103  1  0.84091172  0.37592660  0.60469362  1
  H  H104  1  0.80966562  0.39495795  0.69290545  1
  H  H105  1  0.83661117  0.38872102  0.73793381  1
  H  H106  1  0.62489652  0.31292180  0.26337861  1
  H  H107  1  0.65200130  0.34549681  0.30601684  1
  H  H108  1  0.63242529  0.29616282  0.39532324  1
  H  H109  1  0.60539597  0.26360754  0.35254045  1
  H  H110  1  0.64724443  0.29710947  0.74561677  1
  H  H111  1  0.68029934  0.32630245  0.70245138  1
  H  H112  1  0.62556091  0.29659882  0.61279794  1
  H  H113  1  0.59251526  0.26743816  0.65597906  1
  H  H114  1  0.67016552  0.46484155  0.31057607  1
  H  H115  1  0.68371478  0.44416404  0.35373957  1
  H  H116  1  0.75897697  0.50649076  0.36401663  1
  H  H117  1  0.74531201  0.52709714  0.32109765  1
  H  H118  1  0.71661220  0.52169626  0.65370180  1
  H  H119  1  0.72425051  0.49801582  0.61065169  1
  H  H120  1  0.68067838  0.43785827  0.68100434  1
  H  H121  1  0.67301596  0.46150520  0.72408580  1
  H  H122  1  0.85740187  0.40276434  0.30539411  1
  H  H123  1  0.82619427  0.40198302  0.34963599  1
  H  H124  1  0.80169650  0.33164392  0.38113523  1
  H  H125  1  0.83287702  0.33249670  0.33698104  1
  H  H126  1  0.97998862  0.08521125  0.02472752  1
  H  H127  1  0.97241179  0.11558280  0.03590214  1
  H  H128  1  0.98636691  0.15646923  0.03717301  1
  H  H129  1  0.05554733  0.17413721  0.97724182  1
  H  H130  1  0.04386862  0.13381045  0.98298277  1
  H  H131  1  0.04440763  0.20577172  0.98918954  1
  H  H132  1  0.03576418  0.10001393  0.00277355  1
  H  H133  1  0.98673272  0.18065556  0.01020498  1
  H  H134  1  0.12113950  0.06427148  0.95557697  1
  H  H135  1  0.16512828  0.07585612  0.94007069  1
  H  H136  1  0.20717739  0.08172288  0.95705368  1
  H  H137  1  0.18075824  0.05963899  0.06884539  1
  H  H138  1  0.13881328  0.05395576  0.05188961  1
  H  H139  1  0.22722581  0.07684274  0.05384005  1
  H  H140  1  0.10896146  0.06175639  0.03860848  1
  H  H141  1  0.23352705  0.06970111  0.97233123  1
  H  H142  1  0.93911951  0.92780622  0.95284687  1
  H  H143  1  0.90252063  0.88995609  0.93677627  1
  H  H144  1  0.86286965  0.85332028  0.95295275  1
  H  H145  1  0.87336580  0.87446608  0.06677140  1
  H  H146  1  0.91280352  0.91106995  0.05062761  1
  H  H147  1  0.83983693  0.83525911  0.05153171  1
  H  H148  1  0.95100788  0.93839217  0.03617106  1
  H  H149  1  0.82002411  0.82786807  0.97152514  1
  C  C150  1  0.07882483  0.04738767  -0.00068958  1
  C  C151  1  0.97087636  0.96448612  0.99581524  1
  C  C152  1  0.00582431  0.06468827  0.00654105  1
  C  C153  1  0.89104705  0.36390996  0.77504138  1
  C  C154  1  0.87618945  0.34530620  0.79885585  1
  C  C155  1  0.88507072  0.33804503  0.83013120  1
  C  C156  1  0.86677121  0.31874520  0.85176990  1
  C  C157  1  0.87406397  0.31135282  0.88285709  1
  C  C158  1  0.90009870  0.32321529  0.89350099  1
  C  C159  1  0.91886279  0.34168268  0.87196244  1
  C  C160  1  0.91151118  0.34918031  0.84089015  1
  C  C161  1  0.88883416  0.30010322  0.94948432  1
  C  C162  1  0.90310741  0.29846422  0.98236466  1
  C  C163  1  0.91376000  0.28442332  0.97984868  1
  C  C164  1  0.92937811  0.28467710  0.00919769  1
  C  C165  1  0.93486223  0.29899404  0.04016611  1
  C  C166  1  0.92509719  0.31380666  0.04124922  1
  C  C167  1  0.90842054  0.31306201  0.01297045  1
  C  C168  1  0.89624700  0.32741455  0.01314933  1
  C  C169  1  0.90746345  0.26864254  0.94759591  1
  C  C170  1  0.95158987  0.29790248  0.07005526  1
  C  C171  1  0.94141380  0.27036148  0.00718156  1
  C  C172  1  0.98198946  0.27442170  0.99624039  1
  C  C173  1  0.96899332  0.25015560  -0.00215149  1
  C  C174  1  0.98292272  0.23947730  -0.00506433  1
  C  C175  1  0.01036006  0.25237848  0.99482436  1
  C  C176  1  0.02297069  0.27697842  0.99118648  1
  C  C177  1  0.00881857  0.28773993  0.99105256  1
  C  C178  1  0.02225237  0.23887016  -0.00123099  1
  C  C179  1  0.00799294  0.21725012  0.01587481  1
  C  C180  1  0.93234350  0.32996496  0.07332798  1
  C  C181  1  0.91422682  0.32902244  0.13250761  1
  C  C182  1  0.93324947  0.35229446  0.13945957  1
  C  C183  1  0.93014596  0.36368868  0.16835524  1
  C  C184  1  0.90799095  0.35235473  0.19129336  1
  C  C185  1  0.88960879  0.32850986  0.18425813  1
  C  C186  1  0.89318608  0.31691631  0.15612808  1
  C  C187  1  0.90371222  0.36430708  0.21988551  1
  C  C188  1  0.88319857  0.35293729  0.24406531  1
  C  C189  1  0.56301382  0.24119798  0.23266808  1
  C  C190  1  0.56088552  0.22338937  0.21173806  1
  C  C191  1  0.54336354  0.21371050  0.18105506  1
  C  C192  1  0.53978071  0.19417509  0.16168095  1
  C  C193  1  0.52325953  0.18531323  0.13150745  1
  C  C194  1  0.50961170  0.19570882  0.11978435  1
  C  C195  1  0.51236104  0.21470607  0.13859167  1
  C  C196  1  0.52939876  0.22394806  0.16817625  1
  C  C197  1  0.49179247  0.17064218  0.06660210  1
  C  C198  1  0.47545541  0.16915640  0.03399639  1
  C  C199  1  0.44824930  0.15509877  0.03670459  1
  C  C200  1  0.43295022  0.15499460  0.00696691  1
  C  C201  1  0.44444779  0.16985586  0.97597428  1
  C  C202  1  0.47160053  0.18495092  0.97506871  1
  C  C203  1  0.48742849  0.18422226  0.00329607  1
  C  C204  1  0.51647376  0.19898383  0.00279952  1
  C  C205  1  0.43572599  0.13955521  0.06973972  1
  C  C206  1  0.42678568  0.16906380  0.94581672  1
  C  C207  1  0.40400962  0.13973823  0.00824494  1
  C  C208  1  0.36714568  0.14300144  0.01690621  1
  C  C209  1  0.35112152  0.11899707  0.01220057  1
  C  C210  1  0.32445091  0.10858377  0.01200051  1
  C  C211  1  0.31274107  0.12172499  0.01668180  1
  C  C212  1  0.32960523  0.14599252  0.02244713  1
  C  C213  1  0.35631445  0.15645869  0.02264224  1
  C  C214  1  0.28496041  0.11100868  0.01535468  1
  C  C215  1  0.26771136  0.08821518  0.00590276  1
  C  C216  1  0.48339509  0.20107062  0.94249122  1
  C  C217  1  0.50083360  0.20097272  0.88437832  1
  C  C218  1  0.50885152  0.22441644  0.87944556  1
  C  C219  1  0.52632398  0.23747068  0.85202664  1
  C  C220  1  0.53558178  0.22738263  0.82775139  1
  C  C221  1  0.52593287  0.20320316  0.83222234  1
  C  C222  1  0.50855660  0.19015311  0.85996654  1
  C  C223  1  0.55391298  0.24154964  0.79999308  1
  C  C224  1  0.56462899  0.23413382  0.77444824  1
  C  C225  1  0.69085759  0.53342592  0.76907560  1
  C  C226  1  0.71121254  0.54368451  0.79421700  1
  C  C227  1  0.71486594  0.55845409  0.82467252  1
  C  C228  1  0.73739189  0.56682125  0.84686974  1
  C  C229  1  0.74223427  0.58087864  0.87692586  1
  C  C230  1  0.72443832  0.58697777  0.88620366  1
  C  C231  1  0.70231305  0.57958355  0.86435279  1
  C  C232  1  0.69744162  0.56542292  0.83419942  1
  C  C233  1  0.74925902  0.60581783  0.94113161  1
  C  C234  1  0.74759613  0.61859908  0.97336082  1
  C  C235  1  0.75960511  0.64303250  0.97101389  1
  C  C236  1  0.75683389  0.65469424  1.00066106  1
  C  C237  1  0.74135469  0.64221211  0.03146873  1
  C  C238  1  0.72869263  0.61765901  0.03280536  1
  C  C239  1  0.73265943  0.60583828  0.00450147  1
  C  C240  1  0.72157981  0.58003712  0.00535012  1
  C  C241  1  0.77643960  0.65659188  0.93885269  1
  C  C242  1  0.73896553  0.65611356  0.06111543  1
  C  C243  1  0.76994743  0.68073728  0.99951141  1
  C  C244  1  0.75989074  0.71025088  0.99079778  1
  C  C245  1  0.78617378  0.72713093  0.99485507  1
  C  C246  1  0.79422858  0.75051166  0.99491302  1
  C  C247  1  0.77633770  0.75778340  0.99183759  1
  C  C248  1  0.74989511  0.74029042  0.98625797  1
  C  C249  1  0.74184063  0.71689344  0.98547098  1
  C  C250  1  0.78579658  0.78227877  0.99288623  1
  C  C251  1  0.80976302  0.79829479  0.00728944  1
  C  C252  1  0.71147201  0.60436576  0.06509002  1
  C  C253  1  0.71656661  0.59049794  0.12510238  1
  C  C254  1  0.68994676  0.57778174  0.13218923  1
  C  C255  1  0.68036295  0.56215358  0.16173733  1
  C  C256  1  0.69689480  0.55848030  0.18513753  1
  C  C257  1  0.72379061  0.57218399  0.17779829  1
  C  C258  1  0.73345592  0.58858956  0.14929307  1
  C  C259  1  0.68757863  0.54129466  0.21435942  1
  C  C260  1  0.70432181  0.54026032  0.23951486  1
  C  C261  1  0.71551684  0.42671991  0.57147284  1
  C  C262  1  0.69430698  0.37408973  0.42497216  1
  C  C263  1  0.73642021  0.43500819  0.43583810  1
  C  C264  1  0.76251351  0.37101448  0.43956099  1
  C  C265  1  0.70689533  0.36009850  0.57879785  1
  C  C266  1  0.77381423  0.38960016  0.57107106  1
  C  C267  1  0.87948006  0.36950101  0.74716187  1
  C  C268  1  0.86866284  0.37433812  0.72291620  1
  C  C269  1  0.85397505  0.37849791  0.69710505  1
  C  C270  1  0.85501439  0.37518784  0.65887968  1
  C  C271  1  0.83999487  0.37855765  0.63398614  1
  C  C272  1  0.82283006  0.38529534  0.64566746  1
  C  C273  1  0.82237040  0.38929402  0.68374056  1
  C  C274  1  0.83735424  0.38594814  0.70865321  1
  C  C275  1  0.80658083  0.38784373  0.62039808  1
  C  C276  1  0.79189344  0.38899617  0.59824377  1
  C  C277  1  0.58242997  0.25354177  0.25836933  1
  C  C278  1  0.59745855  0.26792638  0.28075253  1
  C  C279  1  0.61356041  0.28607336  0.30505806  1
  C  C280  1  0.62692227  0.30955435  0.29231852  1
  C  C281  1  0.64189901  0.32750150  0.31584615  1
  C  C282  1  0.64457592  0.32300393  0.35343649  1
  C  C283  1  0.63081010  0.29957983  0.36626410  1
  C  C284  1  0.61583943  0.28159693  0.34271731  1
  C  C285  1  0.66081891  0.34117637  0.37761130  1
  C  C286  1  0.67606902  0.35625609  0.39872659  1
  C  C287  1  0.58286838  0.24958595  0.74979174  1
  C  C288  1  0.59915101  0.26335821  0.72781116  1
  C  C289  1  0.61782875  0.27999214  0.70355316  1
  C  C290  1  0.64288197  0.29710122  0.71639223  1
  C  C291  1  0.66108595  0.31322172  0.69255919  1
  C  C292  1  0.65530193  0.31321527  0.65458012  1
  C  C293  1  0.63010788  0.29640834  0.64190156  1
  C  C294  1  0.61188643  0.28029276  0.66565084  1
  C  C295  1  0.67388856  0.32959429  0.62979120  1
  C  C296  1  0.68924774  0.34358473  0.60727134  1
  C  C297  1  0.69806353  0.52156456  0.26300787  1
  C  C298  1  0.70028981  0.50897858  0.28573940  1
  C  C299  1  0.70701003  0.49716386  0.31180048  1
  C  C300  1  0.68963216  0.47371129  0.32216038  1
  C  C301  1  0.69717333  0.46231878  0.34612291  1
  C  C302  1  0.72247914  0.47366588  0.36146464  1
  C  C303  1  0.73961116  0.49741047  0.35200751  1
  C  C304  1  0.73207276  0.50880490  0.32814184  1
  C  C305  1  0.72981617  0.46157183  0.38592534  1
  C  C306  1  0.73347771  0.44975665  0.40819442  1
  C  C307  1  0.69067076  0.51946447  0.74167144  1
  C  C308  1  0.69132156  0.50711872  0.71784207  1
  C  C309  1  0.69463337  0.49344874  0.69242538  1
  C  C310  1  0.70888098  0.50332165  0.65950206  1
  C  C311  1  0.71311801  0.49019627  0.63566663  1
  C  C312  1  0.70335166  0.46630569  0.64295384  1
  C  C313  1  0.68855429  0.45627249  0.67531846  1
  C  C314  1  0.68428795  0.46936108  0.69919654  1
  C  C315  1  0.70806640  0.45300088  0.61859036  1
  C  C316  1  0.71182860  0.44130811  0.59735660  1
  C  C317  1  0.87569647  0.36393092  0.26808826  1
  C  C318  1  0.86343617  0.36726086  0.29105863  1
  C  C319  1  0.84695792  0.36758878  0.31761180  1
  C  C320  1  0.84505797  0.38730502  0.32208488  1
  C  C321  1  0.82785851  0.38685060  0.34661569  1
  C  C322  1  0.81170498  0.36675285  0.36844160  1
  C  C323  1  0.81397578  0.34715333  0.36445797  1
  C  C324  1  0.83114772  0.34759147  0.33994933  1
  C  C325  1  0.79413206  0.36661025  0.39345681  1
  C  C326  1  0.77994642  0.36863719  0.41440528  1
  C  C327  1  0.01485763  0.08868633  0.00685384  1
  C  C328  1  0.99948180  0.09712219  0.01447619  1
  C  C329  1  0.00720954  0.12125536  0.01069655  1
  C  C330  1  0.99086199  0.12854609  0.02364031  1
  C  C331  1  0.99797978  0.15155279  0.02196639  1
  C  C332  1  0.02078482  0.16872538  0.00342469  1
  C  C333  1  0.03734378  0.16146149  0.99042996  1
  C  C334  1  0.03083346  0.13863961  0.99396905  1
  C  C335  1  0.02577532  0.19198451  0.99988255  1
  C  C336  1  0.00638235  0.19590763  0.00813020  1
  C  C337  1  0.10510728  0.05737585  0.00934414  1
  C  C338  1  0.12414748  0.06222481  0.98476345  1
  C  C339  1  0.14877175  0.06529589  0.99480008  1
  C  C340  1  0.16860792  0.07243410  0.96837811  1
  C  C341  1  0.19218411  0.07547646  0.97788290  1
  C  C342  1  0.19768173  0.07144476  0.01456706  1
  C  C343  1  0.17756059  0.06365576  0.04075440  1
  C  C344  1  0.15393725  0.06051306  0.03120310  1
  C  C345  1  0.22295706  0.07614101  0.02438201  1
  C  C346  1  0.24063420  0.07839365  -0.00114582  1
  C  C347  1  0.95106171  0.94179130  0.00649529  1
  C  C348  1  0.93461686  0.92512800  0.98214368  1
  C  C349  1  0.91130415  0.90353834  0.99222582  1
  C  C350  1  0.89607122  0.88658547  0.96530020  1
  C  C351  1  0.87365501  0.86599498  0.97441694  1
  C  C352  1  0.86465294  0.86074927  0.01139123  1
  C  C353  1  0.87980996  0.87782087  0.03824138  1
  C  C354  1  0.90213607  0.89844031  0.02907637  1
  C  C355  1  0.84227909  0.83879515  0.02189278  1
  C  C356  1  0.82409354  0.82241080  -0.00187803  1
  N  N357  1  0.05645913  0.03857788  -0.00516052  1
  N  N358  1  0.98775417  0.98378179  0.99044093  1
  N  N359  1  0.00123784  0.04556702  0.00496302  1
  O  O360  1  0.90841796  0.31717292  0.92417592  1
  O  O361  1  0.91543845  0.31687453  0.10401932  1
  O  O362  1  0.96891738  0.28552948  0.99897738  1
  O  O363  1  0.49268666  0.18792775  0.09096474  1
  O  O364  1  0.48500399  0.18796254  0.91246409  1
  O  O365  1  0.39338594  0.15411158  0.01616701  1
  O  O366  1  0.72797607  0.60046584  0.91572533  1
  O  O367  1  0.72763171  0.60567026  0.09618777  1
  O  O368  1  0.75083926  0.68705622  0.99159458  1
  O  O369  1  0.77379327  0.40831703  0.57305337  1
  O  O370  1  0.76296211  0.37168515  0.55268137  1
  O  O371  1  0.75261064  0.42955481  0.42683407  1
  O  O372  1  0.72221565  0.43091692  0.46265478  1
  O  O373  1  0.70709874  0.34968055  0.55144742  1
  O  O374  1  0.71715408  0.38088006  0.58948545  1
  O  O375  1  0.73880354  0.43160668  0.57181597  1
  O  O376  1  0.69500819  0.41294900  0.55554877  1
  O  O377  1  0.68327966  0.37988984  0.44642436  1
  O  O378  1  0.71711411  0.37900459  0.41887578  1
  O  O379  1  0.77127898  0.39256933  0.44431106  1
  O  O380  1  0.74419455  0.35186125  0.44921242  1
  O  O381  1  0.73630218  0.39607070  0.50430418  1
