# generated using pymatgen
data_Zn2H132C207(N12O11)2
_symmetry_space_group_name_H-M   'P 1'
_cell_length_a   72.18694211
_cell_length_b   72.99030642
_cell_length_c   35.52467569
_cell_angle_alpha   89.30907880
_cell_angle_beta   89.77222362
_cell_angle_gamma   123.27295945
_symmetry_Int_Tables_number   1
_chemical_formula_structural   Zn2H132C207(N12O11)2
_chemical_formula_sum   'Zn2 H132 C207 N24 O22'
_cell_volume   156468.99067812
_cell_formula_units_Z   1
loop_
 _symmetry_equiv_pos_site_id
 _symmetry_equiv_pos_as_xyz
  1  'x, y, z'
loop_
 _atom_site_type_symbol
 _atom_site_label
 _atom_site_symmetry_multiplicity
 _atom_site_fract_x
 _atom_site_fract_y
 _atom_site_fract_z
 _atom_site_occupancy
  Zn  Zn0  1  0.69247868  0.37479649  0.53796551  1
  Zn  Zn1  1  0.69394100  0.35142822  0.45165746  1
  H  H2  1  0.05280654  0.09148753  1.00529049  1
  H  H3  1  0.05074415  0.07960076  0.04988434  1
  H  H4  1  0.03233921  0.03078562  1.00586802  1
  H  H5  1  0.01726687  0.07997105  0.01115050  1
  H  H6  1  0.96487457  0.01263052  0.99716185  1
  H  H7  1  0.98076601  0.06758230  0.03213837  1
  H  H8  1  0.98215493  0.06952760  0.98257156  1
  H  H9  1  0.97989258  0.99706856  0.95312562  1
  H  H10  1  0.00776432  1.00508062  0.95625306  1
  H  H11  1  0.67334049  0.19329226  0.77911636  1
  H  H12  1  0.62231080  0.16255122  0.78776561  1
  H  H13  1  0.61036026  0.13235818  0.83677971  1
  H  H14  1  0.61870192  0.11716753  0.89103682  1
  H  H15  1  0.68786719  0.16906437  0.88062904  1
  H  H16  1  0.67971984  0.18508831  0.82739380  1
  H  H17  1  0.63561529  0.10304905  0.93228164  1
  H  H18  1  0.63253056  0.12278012  0.95452095  1
  H  H19  1  0.65453767  0.15481086  0.03590532  1
  H  H20  1  0.63160374  0.13254588  0.01353530  1
  H  H21  1  0.65355627  0.15401573  0.98618337  1
  H  H22  1  0.65937525  0.09782242  0.91856282  1
  H  H23  1  0.65036420  0.07555943  0.95041918  1
  H  H24  1  0.67854714  0.09226774  0.93614101  1
  H  H25  1  0.70319437  0.13316149  0.09118071  1
  H  H26  1  0.71715050  0.12799275  0.05592491  1
  H  H27  1  0.69439160  0.10605279  0.08089653  1
  H  H28  1  0.69102933  0.08729085  0.03236671  1
  H  H29  1  0.68558878  0.08306132  0.98347910  1
  H  H30  1  0.70271668  0.06830193  0.00436708  1
  H  H31  1  0.72765089  0.05549286  0.00628749  1
  H  H32  1  0.78380966  0.12189358  0.98848471  1
  H  H33  1  0.75844654  0.13484445  0.98672422  1
  H  H34  1  0.79048571  0.09360678  0.99124270  1
  H  H35  1  0.75234714  0.04829208  0.02145208  1
  H  H36  1  0.69700039  0.15494129  0.08350309  1
  H  H37  1  0.67866868  0.16186323  0.06641297  1
  H  H38  1  0.69608205  0.17776472  0.11869630  1
  H  H39  1  0.69320241  0.19973024  0.16718340  1
  H  H40  1  0.63210259  0.14223640  0.20832834  1
  H  H41  1  0.63469151  0.12050945  0.15825427  1
  H  H42  1  0.67636078  0.20441092  0.21766964  1
  H  H43  1  0.63217278  0.16586366  0.25197215  1
  H  H44  1  0.54273916  0.36004607  0.23321314  1
  H  H45  1  0.54876959  0.32158500  0.21896567  1
  H  H46  1  0.52951799  0.29738825  0.16883679  1
  H  H47  1  0.50356861  0.28487463  0.11594836  1
  H  H48  1  0.49619652  0.33915259  0.13184685  1
  H  H49  1  0.52175679  0.35151942  0.18585058  1
  H  H50  1  0.47323950  0.27262255  0.08270954  1
  H  H51  1  0.49844433  0.29232013  0.05943120  1
  H  H52  1  0.51314014  0.32610445  0.97859743  1
  H  H53  1  0.51102512  0.30344419  1.00122156  1
  H  H54  1  0.51296301  0.32461054  0.02831469  1
  H  H55  1  0.44425612  0.26787378  0.09697149  1
  H  H56  1  0.42839984  0.24566974  0.06639256  1
  H  H57  1  0.41904896  0.26260491  0.07988838  1
  H  H58  1  0.44123826  0.30524966  0.92343178  1
  H  H59  1  0.42091345  0.29989328  0.95805296  1
  H  H60  1  0.41979595  0.27811586  0.93461820  1
  H  H61  1  0.40150079  0.25929088  0.98410094  1
  H  H62  1  0.40227914  0.25461314  0.03322438  1
  H  H63  1  0.37088143  0.24035142  0.01269614  1
  H  H64  1  0.33192737  0.22581948  0.00908904  1
  H  H65  1  0.34538981  0.29094396  0.02450175  1
  H  H66  1  0.38552901  0.30561716  0.02810763  1
  H  H67  1  0.30637064  0.25943024  0.01662238  1
  H  H68  1  0.30251768  0.21596254  -0.00144294  1
  H  H69  1  0.47170015  0.32954319  0.93540296  1
  H  H70  1  0.49735965  0.33349116  0.94752526  1
  H  H71  1  0.49726000  0.34989868  0.89540153  1
  H  H72  1  0.52649104  0.37012491  0.84698259  1
  H  H73  1  0.51980135  0.30938478  0.81605091  1
  H  H74  1  0.49011025  0.28945484  0.86385080  1
  H  H75  1  0.55039025  0.37046407  0.79520366  1
  H  H76  1  0.53522790  0.32356253  0.77088970  1
  H  H77  1  0.80912925  0.53472070  0.77491152  1
  H  H78  1  0.84560132  0.52489292  0.78429613  1
  H  H79  1  0.87320571  0.54619370  0.83310436  1
  H  H80  1  0.88609379  0.57090439  0.88692589  1
  H  H81  1  0.83052328  0.57745802  0.87511309  1
  H  H82  1  0.81714848  0.55245524  0.82149514  1
  H  H83  1  0.89785006  0.60043808  0.92469062  1
  H  H84  1  0.87830163  0.57510961  0.94734388  1
  H  H85  1  0.84436299  0.56003616  0.02948425  1
  H  H86  1  0.86741333  0.56241248  0.00703915  1
  H  H87  1  0.84593179  0.56047489  0.97974655  1
  H  H88  1  0.90338887  0.62939431  0.91170527  1
  H  H89  1  0.92539898  0.64571938  0.94288406  1
  H  H90  1  0.90714342  0.65357181  0.92908244  1
  H  H91  1  0.86487553  0.63094823  0.08511851  1
  H  H92  1  0.86955659  0.65033608  0.04950229  1
  H  H93  1  0.89203971  0.65262930  0.07367629  1
  H  H94  1  0.91014983  0.67046342  0.02472516  1
  H  H95  1  0.91587247  0.66978592  0.97618921  1
  H  H96  1  0.92808959  0.70020100  0.99451864  1
  H  H97  1  0.94029724  0.73842894  -0.00407991  1
  H  H98  1  0.87253581  0.72018032  0.98282297  1
  H  H99  1  0.86022834  0.68096944  0.97932872  1
  H  H100  1  0.90341293  0.75959326  0.98676071  1
  H  H101  1  0.94585382  0.76565048  0.02046948  1
  H  H102  1  0.84154374  0.60068026  0.07440528  1
  H  H103  1  0.83725695  0.57525823  0.06219842  1
  H  H104  1  0.82076270  0.57603688  0.11461058  1
  H  H105  1  0.79996645  0.54777988  0.16381345  1
  H  H106  1  0.86096126  0.55566258  0.20101371  1
  H  H107  1  0.88140525  0.58324875  0.15020642  1
  H  H108  1  0.79795201  0.52571559  0.21524971  1
  H  H109  1  0.84145153  0.53112326  0.24285312  1
  H  H110  1  0.91390715  0.04697396  0.94561656  1
  H  H111  1  0.91075608  0.04026258  0.06633748  1
  H  H112  1  0.94438131  0.03923875  0.06508325  1
  H  H113  1  0.94753981  0.04599140  0.94466741  1
  H  H114  1  0.81570351  0.04486586  0.06780007  1
  H  H115  1  0.78302858  0.04728195  0.06763421  1
  H  H116  1  0.79080203  0.05943951  0.94762868  1
  H  H117  1  0.82182029  0.05442793  0.94737336  1
  H  H118  1  0.11347492  0.10757577  0.94510015  1
  H  H119  1  0.11827154  0.09433438  0.06166321  1
  H  H120  1  0.07750108  0.06851138  0.06496378  1
  H  H121  1  0.07271790  0.08142809  0.94914937  1
  H  H122  1  0.22927271  0.17743644  0.06527308  1
  H  H123  1  0.26957366  0.20446956  0.06606143  1
  H  H124  1  0.26833176  0.21972389  0.94879459  1
  H  H125  1  0.22808111  0.19250105  0.94802980  1
  H  H126  1  0.97392959  0.93031884  0.94977361  1
  H  H127  1  0.97921996  0.94620810  0.06747895  1
  H  H128  1  0.98717586  0.98294469  0.05050688  1
  H  H129  1  0.98047746  0.96635482  0.93309927  1
  H  H130  1  0.95687442  0.83450923  0.06407822  1
  H  H131  1  0.94904831  0.79698006  0.06392754  1
  H  H132  1  0.94341967  0.79595060  0.94272767  1
  H  H133  1  0.95404627  0.83446691  0.94253637  1
  C  C134  1  0.99272804  0.99990014  0.97376174  1
  C  C135  1  0.05090681  0.07680420  0.01922009  1
  C  C136  1  0.02771705  0.05759856  0.00957001  1
  C  C137  1  0.02051523  0.03567399  1.00497344  1
  C  C138  1  0.99826122  0.01993537  0.99635500  1
  C  C139  1  0.98240344  0.02535736  1.00023681  1
  C  C140  1  0.98918826  0.04714427  1.00582051  1
  C  C141  1  0.01178570  0.06282064  0.00877664  1
  C  C142  1  0.97545863  0.05736471  0.00642347  1
  C  C143  1  0.65600370  0.18805390  0.77583148  1
  C  C144  1  0.63950365  0.16995219  0.79600141  1
  C  C145  1  0.64418372  0.16020833  0.82710858  1
  C  C146  1  0.62742419  0.14081962  0.84646573  1
  C  C147  1  0.63209705  0.13218657  0.87738874  1
  C  C148  1  0.65390753  0.14266492  0.89030309  1
  C  C149  1  0.67084767  0.16126847  0.87105117  1
  C  C150  1  0.66610941  0.17007933  0.84054173  1
  C  C151  1  0.64478120  0.11895752  0.94651224  1
  C  C152  1  0.65779836  0.11873670  0.97952226  1
  C  C153  1  0.66819594  0.10705409  0.97687832  1
  C  C154  1  0.68158581  0.10811635  0.00678030  1
  C  C155  1  0.68542032  0.12136901  0.03843576  1
  C  C156  1  0.67521420  0.13322977  0.04045808  1
  C  C157  1  0.66115605  0.13177793  0.01129707  1
  C  C158  1  0.64977622  0.14390598  0.01191835  1
  C  C159  1  0.66401124  0.09261685  0.94391814  1
  C  C160  1  0.70073454  0.12231009  0.06804730  1
  C  C161  1  0.69262758  0.09563262  0.00526728  1
  C  C162  1  0.72910591  0.10259637  0.99673203  1
  C  C163  1  0.72051981  0.08026276  0.00166063  1
  C  C164  1  0.73474620  0.07298399  0.00244546  1
  C  C165  1  0.75795456  0.08772959  0.99791151  1
  C  C166  1  0.76602374  0.11015016  0.99195442  1
  C  C167  1  0.75189479  0.11750476  0.99128313  1
  C  C168  1  0.77332944  0.08073643  -0.00177704  1
  C  C169  1  0.76851014  0.06064218  0.00919142  1
  C  C170  1  0.67998832  0.14791992  0.07355352  1
  C  C171  1  0.66458177  0.14804454  0.13347775  1
  C  C172  1  0.68153615  0.17011709  0.13718072  1
  C  C173  1  0.68021239  0.18237357  0.16528837  1
  C  C174  1  0.66238535  0.17312314  0.19163182  1
  C  C175  1  0.64602941  0.15032916  0.18849980  1
  C  C176  1  0.64730930  0.13800063  0.16013892  1
  C  C177  1  0.66234278  0.18739311  0.21952313  1
  C  C178  1  0.64695943  0.18237358  0.24797347  1
  C  C179  1  0.54910266  0.34954291  0.23556798  1
  C  C180  1  0.54221895  0.33165218  0.21275324  1
  C  C181  1  0.52749544  0.32521341  0.18174673  1
  C  C182  1  0.52216759  0.30649981  0.16084831  1
  C  C183  1  0.50789153  0.29967708  0.13081456  1
  C  C184  1  0.49869015  0.31160073  0.12062791  1
  C  C185  1  0.50356695  0.33014633  0.14048417  1
  C  C186  1  0.51786214  0.33696571  0.17065194  1
  C  C187  1  0.48186051  0.28840876  0.06721121  1
  C  C188  1  0.46898875  0.28840274  0.03435605  1
  C  C189  1  0.44575539  0.27726680  0.03813183  1
  C  C190  1  0.43388888  0.27928628  0.00875396  1
  C  C191  1  0.44504987  0.29323022  0.97732778  1
  C  C192  1  0.46842582  0.30577335  0.97621982  1
  C  C193  1  0.48069540  0.30292227  0.00374549  1
  C  C194  1  0.50555708  0.31486957  0.00278298  1
  C  C195  1  0.43385095  0.26276933  0.07189664  1
  C  C196  1  0.43126157  0.29433124  0.94690325  1
  C  C197  1  0.40919154  0.26728421  0.01091532  1
  C  C198  1  0.38085463  0.27415982  0.01896180  1
  C  C199  1  0.36559348  0.25172898  0.01436233  1
  C  C200  1  0.34316523  0.24344737  0.01250340  1
  C  C201  1  0.33514716  0.25724606  0.01535406  1
  C  C202  1  0.35099401  0.27987731  0.02142910  1
  C  C203  1  0.37351604  0.28822092  0.02336988  1
  C  C204  1  0.31156626  0.24805152  0.01300103  1
  C  C205  1  0.29664926  0.22648377  0.00624909  1
  C  C206  1  0.47976035  0.32087093  0.94318688  1
  C  C207  1  0.49295008  0.31868944  0.88347471  1
  C  C208  1  0.50260520  0.34126306  0.87834683  1
  C  C209  1  0.51854613  0.35246991  0.85054106  1
  C  C210  1  0.52486814  0.34134631  0.82656256  1
  C  C211  1  0.51453491  0.31836696  0.83228612  1
  C  C212  1  0.49819079  0.30709709  0.85965823  1
  C  C213  1  0.54150641  0.35268601  0.79797800  1
  C  C214  1  0.54638304  0.34139400  0.77329964  1
  C  C215  1  0.81748974  0.52605783  0.77134984  1
  C  C216  1  0.83617417  0.53194615  0.79194545  1
  C  C217  1  0.84397012  0.54692864  0.82278951  1
  C  C218  1  0.86357798  0.55276717  0.84235121  1
  C  C219  1  0.87079224  0.56657447  0.87297279  1
  C  C220  1  0.85856840  0.57510050  0.88515288  1
  C  C221  1  0.83963789  0.57034175  0.86578009  1
  C  C222  1  0.83228660  0.55632781  0.83540308  1
  C  C223  1  0.88181184  0.59140846  0.93985610  1
  C  C224  1  0.88167370  0.60377869  0.97321562  1
  C  C225  1  0.89328358  0.62681602  0.97037302  1
  C  C226  1  0.89151737  0.63813936  0.00053526  1
  C  C227  1  0.87742161  0.62707632  0.03188641  1
  C  C228  1  0.86523811  0.60398739  0.03333119  1
  C  C229  1  0.86767347  0.59219185  0.00462738  1
  C  C230  1  0.85572382  0.56765874  0.00539890  1
  C  C231  1  0.90788864  0.63938061  0.93697083  1
  C  C232  1  0.87576957  0.64071250  0.06147460  1
  C  C233  1  0.90274326  0.66237273  0.99785906  1
  C  C234  1  0.89322541  0.68826068  0.98792193  1
  C  C235  1  0.91572800  0.70433607  0.99254674  1
  C  C236  1  0.92262348  0.72606828  0.99385041  1
  C  C237  1  0.90718506  0.73219318  0.99101070  1
  C  C238  1  0.88455685  0.71562376  0.98524381  1
  C  C239  1  0.87761892  0.69379711  0.98351202  1
  C  C240  1  0.91516893  0.75500450  0.99301596  1
  C  C241  1  0.93590938  0.77028164  0.00497839  1
  C  C242  1  0.85017354  0.59259816  0.06666486  1
  C  C243  1  0.85204983  0.57990251  0.12761180  1
  C  C244  1  0.82934079  0.57079589  0.13244642  1
  C  C245  1  0.81779512  0.55541245  0.16086403  1
  C  C246  1  0.82856003  0.54908763  0.18614739  1
  C  C247  1  0.85191647  0.55973131  0.18189098  1
  C  C248  1  0.86351594  0.57520598  0.15335571  1
  C  C249  1  0.81571481  0.53260406  0.21460329  1
  C  C250  1  0.82376573  0.52462652  0.24099523  1
  C  C251  1  0.71497301  0.40726596  0.57364226  1
  C  C252  1  0.66459405  0.36220309  0.43111699  1
  C  C253  1  0.72339903  0.39709117  0.43929238  1
  C  C254  1  0.67244957  0.30763279  0.43324901  1
  C  C255  1  0.65483528  0.33958981  0.58167218  1
  C  C256  1  0.69192965  0.32191154  0.57414235  1
  C  C257  1  0.66334658  0.23250911  0.70093198  1
  C  C258  1  0.67563239  0.26448700  0.65783630  1
  C  C259  1  0.65681748  0.21480650  0.72639574  1
  C  C260  1  0.65272930  0.20024085  0.74930860  1
  C  C261  1  0.68234560  0.28303524  0.63359521  1
  C  C262  1  0.68739461  0.29879844  0.61193949  1
  C  C263  1  0.59387003  0.35897442  0.31204200  1
  C  C264  1  0.62118780  0.36164130  0.35678081  1
  C  C265  1  0.57832575  0.35754715  0.28658730  1
  C  C266  1  0.56437099  0.35450691  0.26338703  1
  C  C267  1  0.63658331  0.36339419  0.38257646  1
  C  C268  1  0.64959009  0.36349459  0.40467719  1
  C  C269  1  0.59120343  0.34881148  0.70158663  1
  C  C270  1  0.61401599  0.34278508  0.65840968  1
  C  C271  1  0.57777392  0.35159836  0.72659741  1
  C  C272  1  0.56463574  0.35117476  0.74926959  1
  C  C273  1  0.62749977  0.34048805  0.63336763  1
  C  C274  1  0.64003151  0.34011388  0.61050129  1
  C  C275  1  0.78652153  0.47664262  0.31704903  1
  C  C276  1  0.76377876  0.44634511  0.36319570  1
  C  C277  1  0.79921431  0.49358168  0.29035262  1
  C  C278  1  0.80998158  0.50814416  0.26663404  1
  C  C279  1  0.75051935  0.42903248  0.38866401  1
  C  C280  1  0.73849024  0.41431616  0.41127147  1
  C  C281  1  0.78192502  0.48137728  0.69369544  1
  C  C282  1  0.75559526  0.45447244  0.64782701  1
  C  C283  1  0.79656799  0.49655087  0.72044703  1
  C  C284  1  0.80841714  0.50983812  0.74438485  1
  C  C285  1  0.74068921  0.43886560  0.62206037  1
  C  C286  1  0.72863544  0.42471881  0.59974857  1
  C  C287  1  0.65547224  0.22854737  0.32016308  1
  C  C288  1  0.66189337  0.25821109  0.36331514  1
  C  C289  1  0.65205948  0.21206958  0.29518811  1
  C  C290  1  0.64965655  0.19817188  0.27286868  1
  C  C291  1  0.66600006  0.27531795  0.38694809  1
  C  C292  1  0.66942072  0.29025901  0.40740925  1
  C  C293  1  0.92070297  0.04534570  0.97189551  1
  C  C294  1  0.91002704  0.04445383  0.00617057  1
  C  C295  1  0.91892373  0.04156612  0.03959712  1
  C  C296  1  0.93797678  0.04136977  0.03882935  1
  C  C297  1  0.95031940  0.04598240  0.00529015  1
  C  C298  1  0.93977041  0.04517037  0.97153514  1
  C  C299  1  0.89133357  0.04577423  0.00689194  1
  C  C300  1  0.87493641  0.04684402  0.00722378  1
  C  C301  1  0.85708122  0.04798909  0.00757557  1
  C  C302  1  0.84066076  0.04902290  0.00788672  1
  C  C303  1  0.82199297  0.05031867  0.00778485  1
  C  C304  1  0.81001833  0.04786244  0.04144494  1
  C  C305  1  0.79184083  0.04938700  0.04130622  1
  C  C306  1  0.78530835  0.05523211  0.00813833  1
  C  C307  1  0.79649421  0.05669850  0.97418106  1
  C  C308  1  0.81379615  0.05379625  0.97388242  1
  C  C309  1  0.10542528  0.09951893  0.97180294  1
  C  C310  1  0.11885442  0.10478638  0.00416576  1
  C  C311  1  0.10814185  0.09201358  0.03720573  1
  C  C312  1  0.08534283  0.07808868  0.03929872  1
  C  C313  1  0.07227151  0.07820244  0.01015139  1
  C  C314  1  0.08262725  0.08550332  0.97446631  1
  C  C315  1  0.14163116  0.12106981  0.00359418  1
  C  C316  1  0.16142084  0.13570538  0.00417079  1
  C  C317  1  0.18295895  0.15161494  0.00484676  1
  C  C318  1  0.20275482  0.16622393  0.00548903  1
  C  C319  1  0.22550200  0.18241133  0.00634610  1
  C  C320  1  0.23795085  0.18679078  0.03979939  1
  C  C321  1  0.26048433  0.20185917  0.04011279  1
  C  C322  1  0.27217190  0.21403264  0.00739140  1
  C  C323  1  0.25981241  0.21042881  0.97439374  1
  C  C324  1  0.23727678  0.19529225  0.97391287  1
  C  C325  1  0.97662414  0.94185671  0.97173771  1
  C  C326  1  0.97633358  0.93582881  0.01007820  1
  C  C327  1  0.97995747  0.95104768  0.03806965  1
  C  C328  1  0.98448573  0.97160787  0.02829437  1
  C  C329  1  0.98550748  0.97764026  -0.00985244  1
  C  C330  1  0.98060971  0.96205544  0.96251176  1
  C  C331  1  0.97222721  0.91507323  0.01724063  1
  C  C332  1  0.96839329  0.89659827  0.01381815  1
  C  C333  1  0.96418109  0.87657434  0.00909802  1
  C  C334  1  0.96030369  0.85815988  0.00489376  1
  C  C335  1  0.95565462  0.83697482  0.00331967  1
  C  C336  1  0.95445475  0.82603006  0.03769128  1
  C  C337  1  0.94999960  0.80526949  0.03758338  1
  C  C338  1  0.94451018  0.79352842  0.00362108  1
  C  C339  1  0.94622495  0.80443510  0.96919360  1
  C  C340  1  0.95221575  0.82583434  0.96895507  1
  N  N341  1  0.64675048  0.23308416  0.68356780  1
  N  N342  1  0.65334862  0.24984955  0.66112409  1
  N  N343  1  0.69218372  0.26354614  0.67404803  1
  N  N344  1  0.68579462  0.24686265  0.69651442  1
  N  N345  1  0.61200098  0.36056798  0.29591914  1
  N  N346  1  0.62643229  0.36202775  0.31935355  1
  N  N347  1  0.60258112  0.35921292  0.37282957  1
  N  N348  1  0.58821207  0.35779925  0.34930321  1
  N  N349  1  0.58308390  0.34296513  0.66601937  1
  N  N350  1  0.59492681  0.33959257  0.64322540  1
  N  N351  1  0.62130559  0.34726652  0.69499751  1
  N  N352  1  0.60933538  0.35064839  0.71747640  1
  N  N353  1  0.76610570  0.47278592  0.32557310  1
  N  N354  1  0.75425124  0.45699210  0.34959631  1
  N  N355  1  0.78453508  0.45071436  0.35553375  1
  N  N356  1  0.79635727  0.46653504  0.33145200  1
  N  N357  1  0.76761633  0.48601044  0.67806208  1
  N  N358  1  0.75374086  0.47196266  0.65401637  1
  N  N359  1  0.77026359  0.45008378  0.66304664  1
  N  N360  1  0.78408665  0.46419467  0.68702982  1
  N  N361  1  0.63681256  0.22681466  0.33404304  1
  N  N362  1  0.64011530  0.24219598  0.35651248  1
  N  N363  1  0.68054438  0.25952794  0.35028363  1
  N  N364  1  0.67720272  0.24414946  0.32787432  1
  O  O365  1  0.66065402  0.13570784  0.91983448  1
  O  O366  1  0.66463214  0.13580988  0.10481838  1
  O  O367  1  0.71619705  0.11090341  0.99682966  1
  O  O368  1  0.48433191  0.30549983  0.09181578  1
  O  O369  1  0.47823358  0.30743928  0.91191369  1
  O  O370  1  0.40301093  0.28281827  0.01914386  1
  O  O371  1  0.86452620  0.58875293  0.91482868  1
  O  O372  1  0.86358196  0.59373666  0.09823879  1
  O  O373  1  0.88591869  0.66673907  0.98781796  1
  O  O374  1  0.70720066  0.33662081  0.58991039  1
  O  O375  1  0.67726332  0.30880548  0.55518451  1
  O  O376  1  0.72228028  0.37921898  0.43510110  1
  O  O377  1  0.71517997  0.40384872  0.46138535  1
  O  O378  1  0.64473660  0.32322384  0.56199129  1
  O  O379  1  0.67431372  0.35635941  0.58494511  1
  O  O380  1  0.72123447  0.39432802  0.56567759  1
  O  O381  1  0.69733774  0.40444257  0.56027886  1
  O  O382  1  0.66454266  0.36948576  0.46289302  1
  O  O383  1  0.67392298  0.35369235  0.41612236  1
  O  O384  1  0.69176829  0.32521218  0.43093721  1
  O  O385  1  0.65529240  0.30101938  0.45185552  1
  O  O386  1  0.68389029  0.35600095  0.49836819  1
