# generated using pymatgen
data_ZnH207C211(N2O3)3
_symmetry_space_group_name_H-M   'P 1'
_cell_length_a   56.91784737
_cell_length_b   57.50313011
_cell_length_c   37.27193446
_cell_angle_alpha   90.11867227
_cell_angle_beta   91.74672072
_cell_angle_gamma   119.94467905
_symmetry_Int_Tables_number   1
_chemical_formula_structural   ZnH207C211(N2O3)3
_chemical_formula_sum   'Zn1 H207 C211 N6 O9'
_cell_volume   105634.54839034
_cell_formula_units_Z   1
loop_
 _symmetry_equiv_pos_site_id
 _symmetry_equiv_pos_as_xyz
  1  'x, y, z'
loop_
 _atom_site_type_symbol
 _atom_site_label
 _atom_site_symmetry_multiplicity
 _atom_site_fract_x
 _atom_site_fract_y
 _atom_site_fract_z
 _atom_site_occupancy
  Zn  Zn0  1  0.71306053  0.37384410  0.50500251  1
  H  H1  1  0.97476199  0.01464082  0.00284170  1
  H  H2  1  0.02217301  0.97531598  0.00343046  1
  H  H3  1  0.99655927  0.06315070  0.00220898  1
  H  H4  1  0.08376645  0.11130489  0.00468804  1
  H  H5  1  0.11099431  0.08919224  0.00697893  1
  H  H6  1  0.07252797  0.00274774  0.00403129  1
  H  H7  1  0.93630898  0.38553166  0.77551218  1
  H  H8  1  0.87895794  0.33639519  0.78305956  1
  H  H9  1  0.87145342  0.30994488  0.83522005  1
  H  H10  1  0.88701400  0.29833597  0.89076974  1
  H  H11  1  0.96832092  0.36302343  0.87486285  1
  H  H12  1  0.95295258  0.37455522  0.81887007  1
  H  H13  1  0.90935840  0.28656746  0.93017170  1
  H  H14  1  0.90521182  0.31219133  0.95004356  1
  H  H15  1  0.92831787  0.34883499  0.03214348  1
  H  H16  1  0.90047301  0.32049484  0.01146238  1
  H  H17  1  0.92466332  0.34646531  0.98494688  1
  H  H18  1  0.93937494  0.27922407  0.91840676  1
  H  H19  1  0.92875235  0.25200016  0.94796520  1
  H  H20  1  0.96324922  0.27136012  0.93695975  1
  H  H21  1  0.98738335  0.31781794  0.08985934  1
  H  H22  1  0.00592265  0.31093412  0.05818721  1
  H  H23  1  0.97721025  0.28444146  0.07779036  1
  H  H24  1  0.97737651  0.26422348  0.02971829  1
  H  H25  1  0.97017556  0.25883672  0.98273580  1
  H  H26  1  0.98653601  0.23749002  0.00381231  1
  H  H27  1  0.01153592  0.21419171  0.00845728  1
  H  H28  1  0.08627817  0.28839229  0.98996605  1
  H  H29  1  0.06034783  0.31240399  0.98799252  1
  H  H30  1  0.08727699  0.24475851  0.99758303  1
  H  H31  1  0.02968058  0.19563080  0.00618162  1
  H  H32  1  0.97933303  0.34685534  0.08161149  1
  H  H33  1  0.95347295  0.35327412  0.06668352  1
  H  H34  1  0.97710236  0.37242678  0.11944291  1
  H  H35  1  0.97354379  0.39598572  0.17200505  1
  H  H36  1  0.90325536  0.32313961  0.20453982  1
  H  H37  1  0.90724263  0.29910148  0.15194893  1
  H  H38  1  0.94829771  0.39832697  0.22065061  1
  H  H39  1  0.91129514  0.34649594  0.25949305  1
  H  H40  1  0.47615111  0.16363705  0.25219517  1
  H  H41  1  0.51564249  0.14581297  0.22856434  1
  H  H42  1  0.48900404  0.10901397  0.17827657  1
  H  H43  1  0.46108594  0.09636655  0.12250294  1
  H  H44  1  0.44588274  0.16201378  0.13879148  1
  H  H45  1  0.47559675  0.17594274  0.19361589  1
  H  H46  1  0.42624120  0.08383337  0.08235330  1
  H  H47  1  0.45635755  0.10932065  0.06381195  1
  H  H48  1  0.47036297  0.14703133  0.98453642  1
  H  H49  1  0.47028651  0.11933949  0.00482860  1
  H  H50  1  0.47100945  0.14516354  0.03170304  1
  H  H51  1  0.38983740  0.07974668  0.09517886  1
  H  H52  1  0.37206078  0.05121025  0.06634320  1
  H  H53  1  0.35781765  0.07156520  0.07652853  1
  H  H54  1  0.38014260  0.11660451  0.92565222  1
  H  H55  1  0.35504529  0.11034329  0.95724905  1
  H  H56  1  0.35590551  0.08339385  0.93568478  1
  H  H57  1  0.33440806  0.06290049  0.98306741  1
  H  H58  1  0.33716715  0.05597448  0.02883066  1
  H  H59  1  0.29267039  0.03739817  0.01132455  1
  H  H60  1  0.24437710  0.02273362  0.00961920  1
  H  H61  1  0.26320140  0.10428442  0.03070627  1
  H  H62  1  0.31209593  0.11897608  0.03197919  1
  H  H63  1  0.21778148  0.07265490  0.01965256  1
  H  H64  1  0.20183642  0.01329980  0.00634389  1
  H  H65  1  0.41719318  0.14421757  0.93398452  1
  H  H66  1  0.44946511  0.15139819  0.95057198  1
  H  H67  1  0.44709998  0.17049432  0.90023256  1
  H  H68  1  0.47563983  0.19496817  0.85067134  1
  H  H69  1  0.47248434  0.12273261  0.81160442  1
  H  H70  1  0.44347917  0.09794839  0.86186987  1
  H  H71  1  0.50158115  0.19999373  0.80704835  1
  H  H72  1  0.50585377  0.15573726  0.76586168  1
  H  H73  1  0.69343327  0.58241089  0.76763190  1
  H  H74  1  0.73852997  0.56897133  0.78628982  1
  H  H75  1  0.76789800  0.59185552  0.83673994  1
  H  H76  1  0.77937831  0.61878653  0.89231250  1
  H  H77  1  0.71113619  0.63071442  0.87203955  1
  H  H78  1  0.69893661  0.60295524  0.81689702  1
  H  H79  1  0.78980156  0.65085944  0.93151204  1
  H  H80  1  0.76472730  0.62076572  0.95046484  1
  H  H81  1  0.72691447  0.60610276  0.02946524  1
  H  H82  1  0.75534098  0.60688438  0.01069641  1
  H  H83  1  0.72903636  0.60542334  0.98243216  1
  H  H84  1  0.79528340  0.68730958  0.91881464  1
  H  H85  1  0.82355847  0.70537900  0.94885437  1
  H  H86  1  0.80206159  0.71836372  0.93695938  1
  H  H87  1  0.75735159  0.69542547  0.08680131  1
  H  H88  1  0.76338007  0.72013973  0.05422203  1
  H  H89  1  0.79077664  0.71946010  0.07666501  1
  H  H90  1  0.81072428  0.74050070  0.02953209  1
  H  H91  1  0.81674090  0.73829668  0.98356205  1
  H  H92  1  0.83528758  0.77786949  0.00032644  1
  H  H93  1  0.85313907  0.82637203  0.00195795  1
  H  H94  1  0.77224434  0.81360575  0.98380306  1
  H  H95  1  0.75410434  0.76420298  0.98105156  1
  H  H96  1  0.80984686  0.85952469  0.99170736  1
  H  H97  1  0.86744413  0.86879347  0.01488604  1
  H  H98  1  0.72808596  0.65832672  0.07672239  1
  H  H99  1  0.72208369  0.62642527  0.06280778  1
  H  H100  1  0.70248946  0.63029827  0.11289352  1
  H  H101  1  0.67873334  0.60311776  0.16428214  1
  H  H102  1  0.75269556  0.60715984  0.20416014  1
  H  H103  1  0.77692675  0.63535178  0.15283046  1
  H  H104  1  0.67680483  0.57777109  0.21541723  1
  H  H105  1  0.72945292  0.58963547  0.25562762  1
  H  H106  1  0.68570198  0.34086145  0.57294496  1
  H  H107  1  0.62204749  0.36954382  0.52906703  1
  H  H108  1  0.60844150  0.33705971  0.57829687  1
  H  H109  1  0.72512402  0.41271572  0.44335712  1
  H  H110  1  0.64151265  0.40376083  0.49188150  1
  H  H111  1  0.66447457  0.43653313  0.44421785  1
  H  H112  1  0.71350373  0.40986515  0.57774351  1
  H  H113  1  0.80549391  0.46039270  0.53131162  1
  H  H114  1  0.79689898  0.47235844  0.59079112  1
  H  H115  1  0.68085743  0.35165183  0.42900542  1
  H  H116  1  0.67648804  0.27265459  0.48839606  1
  H  H117  1  0.65162831  0.26612504  0.43070402  1
  H  H118  1  0.73981891  0.36130570  0.43880750  1
  H  H119  1  0.81367335  0.44548609  0.49227228  1
  H  H120  1  0.82127880  0.42715871  0.43686572  1
  H  H121  1  0.74626476  0.37411120  0.57320340  1
  H  H122  1  0.71347341  0.28471519  0.51868647  1
  H  H123  1  0.74245869  0.29746762  0.57417157  1
  H  H124  1  0.92248594  0.39070198  0.71725888  1
  H  H125  1  0.87863486  0.38623175  0.73568393  1
  H  H126  1  0.88876767  0.38829468  0.66982384  1
  H  H127  1  0.75567266  0.36045481  0.62778407  1
  H  H128  1  0.79923103  0.36850371  0.60141968  1
  H  H129  1  0.79673717  0.37481646  0.66757112  1
  H  H130  1  0.74607898  0.32668461  0.63568381  1
  H  H131  1  0.78974375  0.33462049  0.60750582  1
  H  H132  1  0.78454839  0.34026639  0.67431782  1
  H  H133  1  0.90756112  0.35572345  0.71244215  1
  H  H134  1  0.86300138  0.35103335  0.73387287  1
  H  H135  1  0.87459457  0.35305489  0.66810404  1
  H  H136  1  0.52865420  0.20867417  0.24343951  1
  H  H137  1  0.55406851  0.19086502  0.27859414  1
  H  H138  1  0.56378406  0.23849135  0.28644099  1
  H  H139  1  0.67032545  0.31452042  0.36750125  1
  H  H140  1  0.62418328  0.29355452  0.34722994  1
  H  H141  1  0.63453444  0.25539601  0.37060384  1
  H  H142  1  0.63613937  0.27856124  0.45910072  1
  H  H143  1  0.61224387  0.29275967  0.39042913  1
  H  H144  1  0.61362455  0.25250949  0.40657396  1
  H  H145  1  0.50690355  0.20250591  0.27910228  1
  H  H146  1  0.53067408  0.18065854  0.31319085  1
  H  H147  1  0.53971991  0.22816821  0.32041237  1
  H  H148  1  0.49976636  0.19191660  0.72424270  1
  H  H149  1  0.53753979  0.18949651  0.69937982  1
  H  H150  1  0.53379275  0.23223106  0.69427778  1
  H  H151  1  0.63756896  0.29595633  0.58342897  1
  H  H152  1  0.59772339  0.29833948  0.61397955  1
  H  H153  1  0.60879539  0.26072744  0.61562784  1
  H  H154  1  0.65883586  0.31729685  0.61831614  1
  H  H155  1  0.62088919  0.31475199  0.65044187  1
  H  H156  1  0.63186739  0.27682574  0.65237292  1
  H  H157  1  0.52102389  0.21532147  0.75721462  1
  H  H158  1  0.55841697  0.20367965  0.73847046  1
  H  H159  1  0.55688417  0.24605025  0.73160298  1
  H  H160  1  0.67388702  0.53704133  0.24548384  1
  H  H161  1  0.68699272  0.54234791  0.30875190  1
  H  H162  1  0.67353960  0.49711599  0.27882278  1
  H  H163  1  0.72289467  0.47175253  0.43994693  1
  H  H164  1  0.68576846  0.44044662  0.37951189  1
  H  H165  1  0.69025516  0.48298258  0.40504315  1
  H  H166  1  0.73633860  0.45398408  0.41845805  1
  H  H167  1  0.71924431  0.45801447  0.36500409  1
  H  H168  1  0.72530370  0.50055148  0.39651191  1
  H  H169  1  0.70405015  0.53832850  0.23300489  1
  H  H170  1  0.72115349  0.55325913  0.30037199  1
  H  H171  1  0.70818517  0.50864346  0.27176037  1
  H  H172  1  0.67922751  0.52796406  0.76304167  1
  H  H173  1  0.72555258  0.54051325  0.73586978  1
  H  H174  1  0.68185331  0.49604409  0.72671493  1
  H  H175  1  0.76614966  0.46840915  0.63353598  1
  H  H176  1  0.71728997  0.44508251  0.64718675  1
  H  H177  1  0.75242503  0.49453884  0.66147184  1
  H  H178  1  0.76022575  0.48316869  0.59576033  1
  H  H179  1  0.70908289  0.45524937  0.60607223  1
  H  H180  1  0.74158177  0.50355144  0.62161937  1
  H  H181  1  0.67398599  0.54511870  0.72757235  1
  H  H182  1  0.71626535  0.55385314  0.69928260  1
  H  H183  1  0.67303809  0.50905793  0.68888086  1
  H  H184  1  0.90644216  0.39743022  0.24603003  1
  H  H185  1  0.90803553  0.39374676  0.31063503  1
  H  H186  1  0.86835986  0.39704506  0.28263788  1
  H  H187  1  0.80919912  0.37432821  0.44682455  1
  H  H188  1  0.80829134  0.39629924  0.37870279  1
  H  H189  1  0.84846506  0.39768714  0.40945722  1
  H  H190  1  0.77742959  0.35040915  0.42799071  1
  H  H191  1  0.79296475  0.36142334  0.37081103  1
  H  H192  1  0.83237100  0.36225919  0.40841514  1
  H  H193  1  0.87916009  0.36443950  0.24029414  1
  H  H194  1  0.88790074  0.35855292  0.30908915  1
  H  H195  1  0.84852643  0.36160680  0.28265298  1
  H  H196  1  0.07604291  0.14802609  0.01161914  1
  H  H197  1  0.02457805  0.15307216  0.99837972  1
  H  H198  1  0.01448059  0.10845678  0.99949776  1
  H  H199  1  0.08505484  0.19756935  0.00610126  1
  H  H200  1  0.12135948  0.01699593  0.98420744  1
  H  H201  1  0.17150370  0.05650396  0.03208093  1
  H  H202  1  0.13674560  0.06913571  0.02699971  1
  H  H203  1  0.15913806  0.00781707  0.98291750  1
  H  H204  1  0.95809892  0.93903751  0.97411614  1
  H  H205  1  0.91693823  0.93874826  0.02910230  1
  H  H206  1  0.96262575  0.97144448  0.04283260  1
  H  H207  1  0.89972596  0.89595164  0.97030536  1
  C  C208  1  0.01794189  0.04122653  0.00291904  1
  C  C209  1  0.99442071  0.01570327  0.00394981  1
  C  C210  1  0.99541675  0.99193091  0.00657732  1
  C  C211  1  0.02084201  0.99355649  0.00405195  1
  C  C212  1  0.04533970  0.01873060  0.00364965  1
  C  C213  1  0.04364734  0.04266055  0.00375559  1
  C  C214  1  0.01656829  0.06506774  0.00259608  1
  C  C215  1  0.03976880  0.09090717  0.00330172  1
  C  C216  1  0.06510130  0.09197795  0.00426125  1
  C  C217  1  0.06749664  0.06845005  0.00456195  1
  C  C218  1  0.09280774  0.06949143  0.00638466  1
  C  C219  1  0.09557208  0.04639000  0.00676309  1
  C  C220  1  0.07146228  0.02113977  0.00437226  1
  C  C221  1  0.91579734  0.37014416  0.76694913  1
  C  C222  1  0.90054142  0.34983607  0.78936786  1
  C  C223  1  0.91047554  0.34365416  0.82257094  1
  C  C224  1  0.89270867  0.32202476  0.84396408  1
  C  C225  1  0.90149707  0.31552092  0.87567915  1
  C  C226  1  0.92867822  0.33070502  0.88745218  1
  C  C227  1  0.94696562  0.35164586  0.86627549  1
  C  C228  1  0.93808048  0.35809365  0.83455700  1
  C  C229  1  0.92042441  0.30648460  0.94359602  1
  C  C230  1  0.93640023  0.30588189  0.97640983  1
  C  C231  1  0.94961091  0.29061106  0.97485425  1
  C  C232  1  0.96550950  0.29087909  0.00492134  1
  C  C233  1  0.96783020  0.30556415  0.03666821  1
  C  C234  1  0.95410435  0.32036104  0.03824541  1
  C  C235  1  0.93824821  0.32045383  0.00821386  1
  C  C236  1  0.92233974  0.33483396  0.00928537  1
  C  C237  1  0.94517224  0.27264461  0.94300635  1
  C  C238  1  0.98537248  0.30481648  0.06710850  1
  C  C239  1  0.97932234  0.27440938  0.00400302  1
  C  C240  1  0.02191424  0.27690690  0.99716098  1
  C  C241  1  0.00849062  0.24914889  1.00164344  1
  C  C242  1  0.02295334  0.23561164  0.00323992  1
  C  C243  1  0.05134041  0.24889320  0.99893611  1
  C  C244  1  0.06442353  0.27713241  0.99346057  1
  C  C245  1  0.04997667  0.29082401  0.99249663  1
  C  C246  1  0.06527198  0.23357766  1.00006709  1
  C  C247  1  0.05168563  0.20599081  0.00359200  1
  C  C248  1  0.95802475  0.33707922  0.07165516  1
  C  C249  1  0.94107292  0.33450843  0.13073384  1
  C  C250  1  0.96040154  0.36152515  0.13734862  1
  C  C251  1  0.95870219  0.37480363  0.16747790  1
  C  C252  1  0.93807760  0.36163969  0.19243468  1
  C  C253  1  0.91959236  0.33396056  0.18607909  1
  C  C254  1  0.92147447  0.32047927  0.15616186  1
  C  C255  1  0.93525448  0.37653512  0.22185752  1
  C  C256  1  0.91650841  0.36584561  0.24766865  1
  C  C257  1  0.49685304  0.16763538  0.24855724  1
  C  C258  1  0.50061703  0.15213802  0.22416220  1
  C  C259  1  0.48414368  0.14322206  0.19110418  1
  C  C260  1  0.48017615  0.12117358  0.16947521  1
  C  C261  1  0.46437227  0.11401549  0.13776734  1
  C  C262  1  0.45231019  0.12897383  0.12637766  1
  C  C263  1  0.45562672  0.15065172  0.14741132  1
  C  C264  1  0.47172411  0.15795225  0.17878897  1
  C  C265  1  0.43539714  0.10371933  0.06988902  1
  C  C266  1  0.41884060  0.10334735  0.03722840  1
  C  C267  1  0.39021614  0.08866808  0.03851821  1
  C  C268  1  0.37434018  0.08842562  0.00846339  1
  C  C269  1  0.38695954  0.10353525  0.97771564  1
  C  C270  1  0.41564943  0.11815654  0.97668178  1
  C  C271  1  0.43174454  0.11812351  0.00642769  1
  C  C272  1  0.46221300  0.13317875  0.00679684  1
  C  C273  1  0.37690061  0.07217831  0.07069930  1
  C  C274  1  0.36884135  0.10360696  0.94761930  1
  C  C275  1  0.34374784  0.07226377  0.00939429  1
  C  C276  1  0.30576258  0.07955196  0.01975304  1
  C  C277  1  0.28642038  0.05238418  0.01452634  1
  C  C278  1  0.25878816  0.04407087  0.01378320  1
  C  C279  1  0.24935222  0.06255668  0.01841737  1
  C  C280  1  0.26954768  0.08959273  0.02580796  1
  C  C281  1  0.29709204  0.09795648  0.02653751  1
  C  C282  1  0.22095112  0.05561878  0.01575415  1
  C  C283  1  0.19883173  0.03061526  0.00804918  1
  C  C284  1  0.42882348  0.13485588  0.94420647  1
  C  C285  1  0.44518328  0.13289639  0.88617610  1
  C  C286  1  0.45340819  0.15999940  0.88194592  1
  C  C287  1  0.46945133  0.17384334  0.85357656  1
  C  C288  1  0.47817215  0.16155799  0.82838919  1
  C  C289  1  0.46772187  0.13358707  0.83145601  1
  C  C290  1  0.45131474  0.11948678  0.85984974  1
  C  C291  1  0.49666186  0.17931911  0.80154182  1
  C  C292  1  0.50686744  0.17484892  0.77141779  1
  C  C293  1  0.70355445  0.57050557  0.76759484  1
  C  C294  1  0.72514932  0.57719604  0.79051912  1
  C  C295  1  0.73227039  0.59459319  0.82226798  1
  C  C296  1  0.75509090  0.60000504  0.84452972  1
  C  C297  1  0.76150081  0.61513245  0.87619610  1
  C  C298  1  0.74512451  0.62551255  0.88676614  1
  C  C299  1  0.72327082  0.62176061  0.86439535  1
  C  C300  1  0.71665309  0.60622932  0.83302175  1
  C  C301  1  0.76988680  0.64142122  0.94400911  1
  C  C302  1  0.77039078  0.65749425  0.97636898  1
  C  C303  1  0.78527730  0.68580964  0.97495205  1
  C  C304  1  0.78533590  0.70106203  0.00471559  1
  C  C305  1  0.77016203  0.68853850  0.03527297  1
  C  C306  1  0.75529266  0.66017157  0.03635592  1
  C  C307  1  0.75557840  0.64451770  0.00712602  1
  C  C308  1  0.74095521  0.61438584  0.00752430  1
  C  C309  1  0.80217194  0.69977874  0.94336892  1
  C  C310  1  0.77025833  0.70651721  0.06469136  1
  C  C311  1  0.80081312  0.73115830  1.00340298  1
  C  C312  1  0.79324699  0.76788966  0.99255283  1
  C  C313  1  0.82114291  0.78536727  0.99746594  1
  C  C314  1  0.83129476  0.81299166  0.99834914  1
  C  C315  1  0.81385067  0.82355339  0.99458174  1
  C  C316  1  0.78589443  0.80561236  0.98769213  1
  C  C317  1  0.77568641  0.77799739  0.98636796  1
  C  C318  1  0.82442864  0.85280537  0.99730744  1
  C  C319  1  0.84999254  0.87034753  0.00627197  1
  C  C320  1  0.73822744  0.64720548  0.06842919  1
  C  C321  1  0.74101975  0.63315347  0.12823202  1
  C  C322  1  0.71361210  0.62493632  0.13231279  1
  C  C323  1  0.70024652  0.60997485  0.16179451  1
  C  C324  1  0.71369054  0.60299402  0.18851561  1
  C  C325  1  0.74168712  0.61244310  0.18443713  1
  C  C326  1  0.75528120  0.62788427  0.15523902  1
  C  C327  1  0.69871225  0.58561907  0.21752855  1
  C  C328  1  0.70917632  0.57650475  0.24359807  1
  C  C329  1  0.66128971  0.37232448  0.52394710  1
  C  C330  1  0.67130019  0.34697195  0.56348651  1
  C  C331  1  0.63608453  0.36325203  0.53927435  1
  C  C332  1  0.64615244  0.33586097  0.57883042  1
  C  C333  1  0.62832135  0.34467788  0.56681232  1
  C  C334  1  0.69335371  0.31548360  0.48716399  1
  C  C335  1  0.67932197  0.33365670  0.44127560  1
  C  C336  1  0.67641866  0.28952853  0.47514537  1
  C  C337  1  0.66376069  0.30851833  0.42428898  1
  C  C338  1  0.65581217  0.28392563  0.44682062  1
  C  C339  1  0.76528399  0.42471054  0.52582034  1
  C  C340  1  0.73417186  0.42111401  0.56816260  1
  C  C341  1  0.78608402  0.44753662  0.54330388  1
  C  C342  1  0.75391295  0.44469190  0.58588898  1
  C  C343  1  0.78069110  0.45539445  0.57559768  1
  C  C344  1  0.77103083  0.41437923  0.49361094  1
  C  C345  1  0.75641147  0.37975445  0.45099335  1
  C  C346  1  0.79688783  0.42770692  0.47937754  1
  C  C347  1  0.78298632  0.38961421  0.44036055  1
  C  C348  1  0.80188279  0.41626735  0.44993119  1
  C  C349  1  0.71237250  0.32194531  0.51795442  1
  C  C350  1  0.73849015  0.35386026  0.56215692  1
  C  C351  1  0.71965503  0.30384460  0.53208886  1
  C  C352  1  0.74337733  0.33563299  0.58050218  1
  C  C353  1  0.73604585  0.31109020  0.56320116  1
  C  C354  1  0.67176489  0.39121857  0.49434877  1
  C  C355  1  0.70713227  0.41173179  0.45455651  1
  C  C356  1  0.65994912  0.40584757  0.48090443  1
  C  C357  1  0.69877207  0.42958712  0.44380931  1
  C  C358  1  0.67336251  0.42486684  0.45488906  1
  C  C359  1  0.90711376  0.37170594  0.72873863  1
  C  C360  1  0.87925898  0.36945485  0.72230166  1
  C  C361  1  0.87313396  0.36942046  0.68198634  1
  C  C362  1  0.84678116  0.36623451  0.67485790  1
  C  C363  1  0.75735627  0.34341843  0.61714724  1
  C  C364  1  0.78720998  0.35105666  0.61833548  1
  C  C365  1  0.79805182  0.35734591  0.65724223  1
  C  C366  1  0.82536192  0.36254583  0.66092843  1
  C  C367  1  0.51814737  0.19435259  0.26517926  1
  C  C368  1  0.53983699  0.19548779  0.29188299  1
  C  C369  1  0.55483683  0.22379158  0.30844517  1
  C  C370  1  0.57534139  0.22799687  0.33512098  1
  C  C371  1  0.65503626  0.30686783  0.38817433  1
  C  C372  1  0.62645953  0.28892632  0.37531675  1
  C  C373  1  0.61769797  0.25870692  0.37829380  1
  C  C374  1  0.59402798  0.24167421  0.35670411  1
  C  C375  1  0.51683101  0.19646470  0.74346575  1
  C  C376  1  0.54219585  0.20381302  0.72176913  1
  C  C377  1  0.55151768  0.23221461  0.70792930  1
  C  C378  1  0.57385897  0.24331559  0.68412496  1
  C  C379  1  0.64014401  0.31221643  0.60220652  1
  C  C380  1  0.61640646  0.30096096  0.62739720  1
  C  C381  1  0.61247427  0.27373920  0.63975851  1
  C  C382  1  0.59088967  0.25936916  0.66409655  1
  C  C383  1  0.69588988  0.54724443  0.25207604  1
  C  C384  1  0.70024194  0.53988299  0.29003445  1
  C  C385  1  0.69432261  0.51080180  0.29017689  1
  C  C386  1  0.69726813  0.50247811  0.32541482  1
  C  C387  1  0.71716997  0.45380455  0.42259573  1
  C  C388  1  0.70602037  0.45763886  0.38622948  1
  C  C389  1  0.70538686  0.48400370  0.38597843  1
  C  C390  1  0.69952807  0.49014378  0.35084009  1
  C  C391  1  0.69005681  0.54513083  0.74477997  1
  C  C392  1  0.70792306  0.53903633  0.72075272  1
  C  C393  1  0.69071949  0.51063386  0.70465354  1
  C  C394  1  0.70535853  0.50225718  0.68221274  1
  C  C395  1  0.75126612  0.46416043  0.61100819  1
  C  C396  1  0.72527784  0.46076146  0.62678046  1
  C  C397  1  0.73413818  0.48859267  0.64351938  1
  C  C398  1  0.71423192  0.49123857  0.66307720  1
  C  C399  1  0.89832318  0.37692305  0.25631559  1
  C  C400  1  0.89117265  0.37688440  0.29551716  1
  C  C401  1  0.86552025  0.37906233  0.29736600  1
  C  C402  1  0.85829501  0.38021363  0.33351996  1
  C  C403  1  0.79313865  0.37171614  0.42673979  1
  C  C404  1  0.80623619  0.37770202  0.38990683  1
  C  C405  1  0.83412694  0.37960077  0.39307382  1
  C  C406  1  0.84507550  0.38043555  0.35875848  1
  C  C407  1  0.03584268  0.11414101  0.00268859  1
  C  C408  1  0.05459614  0.14123296  0.00559799  1
  C  C409  1  0.04641716  0.16089050  0.00278297  1
  C  C410  1  0.06297856  0.18880270  0.00423818  1
  C  C411  1  0.12297700  0.05033309  0.01257578  1
  C  C412  1  0.13329055  0.03423748  1.00241508  1
  C  C413  1  0.16027109  0.04019279  0.01233002  1
  C  C414  1  0.17187607  0.02548851  -0.00005613  1
  C  C415  1  0.96953884  0.96829588  0.01695575  1
  C  C416  1  0.95188354  0.94602636  0.99728772  1
  C  C417  1  0.92366131  0.93083079  0.00733237  1
  C  C418  1  0.90314492  0.90799214  -0.00548109  1
  N  N419  1  0.67865842  0.36427755  0.53643002  1
  N  N420  1  0.74001969  0.41090943  0.53948692  1
  N  N421  1  0.69455040  0.39363869  0.48002138  1
  N  N422  1  0.69250137  0.33700345  0.47294066  1
  N  N423  1  0.75033934  0.39199726  0.47687274  1
  N  N424  1  0.72353430  0.34740179  0.53136319  1
  O  O425  1  0.93897037  0.32580609  0.91820841  1
  O  O426  1  0.94085083  0.32092047  0.10057997  1
  O  O427  1  0.00825402  0.29075848  0.99735086  1
  O  O428  1  0.43626878  0.12313079  0.09599362  1
  O  O429  1  0.43078827  0.11893873  0.91491254  1
  O  O430  1  0.33315194  0.08965772  0.01985597  1
  O  O431  1  0.74973166  0.64014804  0.91762962  1
  O  O432  1  0.75472844  0.64672471  0.09894678  1
  O  O433  1  0.78217648  0.74074731  0.99337361  1
