# generated using pymatgen
data_H180C261(N5O7)2
_symmetry_space_group_name_H-M   'P 1'
_cell_length_a   59.26143508
_cell_length_b   49.08862364
_cell_length_c   72.99292201
_cell_angle_alpha   89.99141178
_cell_angle_beta   87.31207177
_cell_angle_gamma   90.29886297
_symmetry_Int_Tables_number   1
_chemical_formula_structural   H180C261(N5O7)2
_chemical_formula_sum   'H180 C261 N10 O14'
_cell_volume   212104.43203048
_cell_formula_units_Z   1
loop_
 _symmetry_equiv_pos_site_id
 _symmetry_equiv_pos_as_xyz
  1  'x, y, z'
loop_
 _atom_site_type_symbol
 _atom_site_label
 _atom_site_symmetry_multiplicity
 _atom_site_fract_x
 _atom_site_fract_y
 _atom_site_fract_z
 _atom_site_occupancy
  H  H0  1  0.07384092  0.04841647  0.58558030  1
  H  H1  1  0.10024533  0.99342887  0.62522801  1
  H  H2  1  0.08018963  0.96318860  0.57323550  1
  H  H3  1  0.03849483  0.01033972  0.53879260  1
  H  H4  1  0.04071908  0.97456401  0.53712888  1
  H  H5  1  0.08277298  0.07329393  0.64573741  1
  H  H6  1  0.05724395  0.08366157  0.63645246  1
  H  H7  1  0.10816386  0.92479726  0.64329922  1
  H  H8  1  0.11340677  0.90969381  0.62130780  1
  H  H9  1  0.07924878  0.97916267  0.54612186  1
  H  H10  1  0.07426892  0.07556901  0.60687540  1
  H  H11  1  0.07771552  0.94953853  0.63094417  1
  H  H12  1  0.99596715  0.95832462  0.43561682  1
  H  H13  1  0.00890379  0.01436985  0.39073871  1
  H  H14  1  0.00768425  0.04286369  0.44599582  1
  H  H15  1  1.00177584  0.99056152  0.49652387  1
  H  H16  1  0.99530677  0.02480056  0.50214490  1
  H  H17  1  0.98230557  0.93332176  0.37615145  1
  H  H18  1  0.96597995  0.91430380  0.39274371  1
  H  H19  1  1.00763423  0.07676348  0.37132438  1
  H  H20  1  0.02557113  0.09067920  0.38784665  1
  H  H21  1  -0.00994115  0.03370743  0.46998984  1
  H  H22  1  0.98798984  0.93264706  0.41510302  1
  H  H23  1  0.98321557  0.06081563  0.39460615  1
  H  H24  1  0.95789111  0.49392369  0.83571897  1
  H  H25  1  0.99436331  0.53434981  0.87801193  1
  H  H26  1  0.05299619  0.37226460  0.77102152  1
  H  H27  1  0.09412113  0.49451759  0.84303110  1
  H  H28  1  0.06485559  0.43274686  0.72830366  1
  H  H29  1  0.13676311  0.49997031  0.79355534  1
  H  H30  1  0.07822479  0.53623025  0.78564982  1
  H  H31  1  0.06181117  0.54859128  0.80523502  1
  H  H32  1  0.06875825  0.47661803  0.81992967  1
  H  H33  1  0.07301533  0.51183020  0.82552228  1
  H  H34  1  0.02835901  0.48115041  0.81111816  1
  H  H35  1  0.02053753  0.50977102  0.79749956  1
  H  H36  1  0.07736969  0.48933446  0.77604256  1
  H  H37  1  0.95401275  0.52841510  0.88256082  1
  H  H38  1  0.04782140  0.49276051  0.77208723  1
  H  H39  1  0.02844865  0.53651322  0.85687318  1
  H  H40  1  0.06324140  0.46894034  0.75155426  1
  H  H41  1  0.07915309  0.57665316  0.78073716  1
  H  H42  1  0.08282837  0.61602597  0.76049945  1
  H  H43  1  0.99227688  0.49410482  0.81561154  1
  H  H44  1  0.08644758  0.64426200  0.74062718  1
  H  H45  1  0.93515326  0.48207984  0.85900623  1
  H  H46  1  0.06407195  0.34527929  0.75243840  1
  H  H47  1  0.03752582  0.63717381  0.72779211  1
  H  H48  1  0.01744460  0.59785909  0.73910237  1
  H  H49  1  0.01462756  0.55658813  0.75895887  1
  H  H50  1  0.05063221  0.40880410  0.79405401  1
  H  H51  1  0.12708491  0.50123971  0.86164243  1
  H  H52  1  0.17054368  0.50343290  0.81237634  1
  H  H53  1  0.18732690  0.50107352  0.84231818  1
  H  H54  1  0.15629899  0.52723521  0.87235536  1
  H  H55  1  0.06547585  0.38560620  0.71971628  1
  H  H56  1  0.12462912  0.49567902  0.18347681  1
  H  H57  1  0.08857305  0.53559066  0.14090061  1
  H  H58  1  0.03009580  0.37507786  0.24815562  1
  H  H59  1  0.98867759  0.49606580  0.17624401  1
  H  H60  1  0.01828593  0.43554372  0.29080505  1
  H  H61  1  0.94584865  0.50216786  0.22550456  1
  H  H62  1  0.00449479  0.53877208  0.23340669  1
  H  H63  1  0.02106948  0.55131310  0.21391580  1
  H  H64  1  0.01392816  0.47923541  0.19924599  1
  H  H65  1  0.00968987  0.51438798  0.19362806  1
  H  H66  1  0.05416653  0.48378359  0.20818805  1
  H  H67  1  0.06223632  0.51254755  0.22164607  1
  H  H68  1  0.00535214  0.49191117  0.24313242  1
  H  H69  1  0.12892606  0.52949554  0.13644679  1
  H  H70  1  0.03494735  0.49542698  0.24701525  1
  H  H71  1  0.05449971  0.53809017  0.16202186  1
  H  H72  1  0.01952717  0.47163501  0.26748101  1
  H  H73  1  0.00345490  0.57916586  0.23853082  1
  H  H74  1  -0.00021646  0.61845509  0.25873830  1
  H  H75  1  0.09026421  0.49621662  0.20358162  1
  H  H76  1  -0.00370825  0.64715946  0.27835779  1
  H  H77  1  0.14741967  0.48363539  0.16043913  1
  H  H78  1  0.01787942  0.34840413  0.26657231  1
  H  H79  1  0.04508248  0.64045610  0.29139462  1
  H  H80  1  0.06514755  0.60106458  0.28016761  1
  H  H81  1  0.06790539  0.55982180  0.26037095  1
  H  H82  1  0.03194391  0.41155307  0.22501067  1
  H  H83  1  0.95608564  0.50290340  0.15745440  1
  H  H84  1  0.91230335  0.50630409  0.20649405  1
  H  H85  1  0.89564607  0.50737011  0.17703201  1
  H  H86  1  0.92856983  0.52161724  0.14416385  1
  H  H87  1  0.01807531  0.38828030  0.29943755  1
  H  H88  1  0.74672664  0.52028262  0.00964930  1
  H  H89  1  0.68849608  0.51033546  0.97774464  1
  H  H90  1  0.68122722  0.51130267  0.03700306  1
  H  H91  1  0.63319827  0.49938618  0.98527912  1
  H  H92  1  0.61029871  0.50302633  0.04244923  1
  H  H93  1  0.59315460  0.49472078  0.97700623  1
  H  H94  1  0.57102821  0.50546865  0.03302277  1
  H  H95  1  0.33495873  0.51322821  0.00856354  1
  H  H96  1  0.39342940  0.51261064  0.04120316  1
  H  H97  1  0.40123301  0.50879122  0.98203666  1
  H  H98  1  0.44803479  0.50408482  0.03387137  1
  H  H99  1  0.47328556  0.50443662  0.97716364  1
  H  H100  1  0.48683918  0.49650695  0.04349541  1
  H  H101  1  0.51193291  0.50426843  0.98741324  1
  H  H102  1  0.87379467  0.46035234  0.90158659  1
  H  H103  1  0.87646780  0.54800246  0.89896018  1
  H  H104  1  0.91218666  0.54568443  0.88055264  1
  H  H105  1  0.90881925  0.45790436  0.88217073  1
  H  H106  1  0.77389827  0.55204463  0.95177028  1
  H  H107  1  0.73955269  0.55413673  0.97211909  1
  H  H108  1  0.73748097  0.46648782  0.97445442  1
  H  H109  1  0.77197045  0.46444050  0.95434524  1
  H  H110  1  0.83692430  0.53107947  0.14123459  1
  H  H111  1  0.87683189  0.49119102  0.09834009  1
  H  H112  1  0.91012319  0.49374133  0.11716303  1
  H  H113  1  0.86976852  0.53252333  0.16043006  1
  H  H114  1  0.78380374  0.48814457  0.04589176  1
  H  H115  1  0.75203067  0.48463041  0.02535172  1
  H  H116  1  0.70969110  0.52987300  0.06377011  1
  H  H117  1  0.74044907  0.53034191  0.08533642  1
  H  H118  1  0.23021535  0.46864091  0.89204059  1
  H  H119  1  0.21960161  0.55215936  0.90831584  1
  H  H120  1  0.18609555  0.55411981  0.88964933  1
  H  H121  1  0.19788722  0.47123505  0.87220300  1
  H  H122  1  0.31362468  0.55240892  0.95950896  1
  H  H123  1  0.34587744  0.55336678  0.97974247  1
  H  H124  1  0.35959941  0.46916985  0.96715104  1
  H  H125  1  0.32689968  0.46790562  0.94752675  1
  H  H126  1  0.20687750  0.46186969  0.11563990  1
  H  H127  1  0.20798822  0.54912314  0.12199618  1
  H  H128  1  0.17217770  0.54692673  0.14034502  1
  H  H129  1  0.17179817  0.45940658  0.13504853  1
  H  H130  1  0.31084049  0.55197050  0.06926761  1
  H  H131  1  0.34529899  0.55387612  0.04902292  1
  H  H132  1  0.34261008  0.46675707  0.04250765  1
  H  H133  1  0.30848816  0.46477804  0.06316313  1
  H  H134  1  0.58110720  0.57123610  0.00649221  1
  H  H135  1  0.56475960  0.60748269  0.02684316  1
  H  H136  1  0.52582262  0.60143154  0.04110768  1
  H  H137  1  0.50594911  0.55707801  0.03813854  1
  H  H138  1  0.52411886  0.50438038  0.03884493  1
  H  H139  1  0.53743938  0.49508161  0.01778976  1
  H  H140  1  0.54793667  0.50969136  0.99229280  1
  H  H141  1  0.56713897  0.53412174  0.98362527  1
  H  H142  1  0.06984544  0.14914142  0.67969093  1
  H  H143  1  0.09344294  0.18137833  0.62734642  1
  H  H144  1  0.09429866  0.13509354  0.61431490  1
  H  H145  1  0.07302173  0.10275080  0.66711587  1
  H  H146  1  0.08089470  0.31059825  0.68127611  1
  H  H147  1  0.07713608  0.35130980  0.70069895  1
  H  H148  1  0.05211816  0.30108770  0.74594771  1
  H  H149  1  0.05597821  0.26030913  0.72636671  1
  H  H150  1  0.07764339  0.86160059  0.68055434  1
  H  H151  1  0.08462397  0.82258074  0.62781762  1
  H  H152  1  0.08866151  0.86766287  0.61295240  1
  H  H153  1  0.07822542  0.90644580  0.66528013  1
  H  H154  1  0.07675378  0.69802473  0.67899800  1
  H  H155  1  0.07287699  0.65506367  0.69634754  1
  H  H156  1  0.07098760  0.70033852  0.74706720  1
  H  H157  1  0.07299927  0.74338743  0.72966120  1
  H  H158  1  0.99275789  0.86128230  0.33905617  1
  H  H159  1  0.00987035  0.82860838  0.39129167  1
  H  H160  1  0.00436643  0.87365359  0.40543084  1
  H  H161  1  0.98998930  0.90696909  0.35277807  1
  H  H162  1  0.01865116  0.70235030  0.33909019  1
  H  H163  1  0.02224109  0.65979625  0.32143159  1
  H  H164  1  -0.00018392  0.70149834  0.27355058  1
  H  H165  1  0.99768836  0.74449843  0.29093923  1
  H  H166  1  0.00164780  0.15071356  0.33821957  1
  H  H167  1  -0.00040257  0.18382090  0.39282327  1
  H  H168  1  0.99816114  0.13734749  0.40564940  1
  H  H169  1  0.99544993  0.10492682  0.35107822  1
  H  H170  1  0.01272621  0.31378912  0.33895116  1
  H  H171  1  0.01648818  0.35428982  0.31935825  1
  H  H172  1  0.01867111  0.30273352  0.27131347  1
  H  H173  1  0.01494516  0.26215964  0.29108440  1
  H  H174  1  0.07079191  0.99456987  0.50838471  1
  H  H175  1  0.04407158  0.97885126  0.50698739  1
  H  H176  1  0.05628013  0.03773514  0.50237285  1
  H  H177  1  0.03194212  0.03242223  0.51625863  1
  H  H178  1  0.02850603  0.04018932  0.48136915  1
  H  H179  1  0.03664263  0.00593741  0.47822226  1
  C  C180  1  0.07748200  0.00699655  0.57718576  1
  C  C181  1  0.07916544  0.02831132  0.58978826  1
  C  C182  1  0.08809262  0.02389612  0.60691846  1
  C  C183  1  0.09282197  0.99693311  0.61208742  1
  C  C184  1  0.08899943  0.97507606  0.60024009  1
  C  C185  1  0.08258212  0.98030967  0.58240532  1
  C  C186  1  0.06835262  0.01473213  0.55896767  1
  C  C187  1  0.04969676  0.99381764  0.53394965  1
  C  C188  1  0.09231492  0.04634496  0.62050907  1
  C  C189  1  0.07594046  0.08575680  0.63479732  1
  C  C190  1  0.09339328  0.94551208  0.60518005  1
  C  C191  1  0.09998219  0.91594843  0.63134898  1
  C  C192  1  0.99743935  0.00045456  0.44261060  1
  C  C193  1  0.99776079  0.97884873  0.43010265  1
  C  C194  1  0.00179141  0.98359284  0.41131082  1
  C  C195  1  0.00511802  0.01070110  0.40525706  1
  C  C196  1  0.00486365  0.03231295  0.41779226  1
  C  C197  1  0.00336081  0.02675135  0.43652449  1
  C  C198  1  0.99262557  0.99324035  0.46252670  1
  C  C199  1  0.00360414  0.01170686  0.49165762  1
  C  C200  1  0.00204380  0.96118576  0.39704598  1
  C  C201  1  0.98347852  0.91960583  0.38795249  1
  C  C202  1  0.00870859  0.06224157  0.41254679  1
  C  C203  1  0.00777679  0.08857219  0.38416782  1
  C  C204  1  0.04682323  0.56407059  0.77063862  1
  C  C205  1  0.06188353  0.53467178  0.79340168  1
  C  C206  1  0.05074821  0.60939750  0.74748764  1
  C  C207  1  0.06378753  0.37862683  0.73390206  1
  C  C208  1  0.05736313  0.44068414  0.77429814  1
  C  C209  1  0.07333697  0.49683303  0.81430349  1
  C  C210  1  0.03254927  0.50240780  0.80743181  1
  C  C211  1  0.06014535  0.48734406  0.78231242  1
  C  C212  1  0.95300695  0.51524333  0.87057214  1
  C  C213  1  0.01279998  0.52735333  0.85247611  1
  C  C214  1  0.06795690  0.60303309  0.75963562  1
  C  C215  1  0.06085387  0.39955209  0.74773086  1
  C  C216  1  0.11350047  0.49808848  0.81711174  1
  C  C217  1  0.06104312  0.44778976  0.75585425  1
  C  C218  1  0.06599701  0.58060189  0.77112572  1
  C  C219  1  0.99264383  0.50315760  0.82924037  1
  C  C220  1  0.07083510  0.64936397  0.73395229  1
  C  C221  1  0.93445590  0.49916267  0.86862668  1
  C  C222  1  0.06403643  0.35159487  0.73811014  1
  C  C223  1  0.97321709  0.51453265  0.85851712  1
  C  C224  1  0.05252592  0.63263681  0.73534397  1
  C  C225  1  0.03122875  0.59261982  0.74778414  1
  C  C226  1  0.02942205  0.56987698  0.75900848  1
  C  C227  1  0.05420974  0.41360726  0.77960745  1
  C  C228  1  0.15147943  0.50348271  0.83847181  1
  C  C229  1  0.12942557  0.50128689  0.84673566  1
  C  C230  1  0.15376721  0.50210882  0.81908712  1
  C  C231  1  0.01211265  0.51604863  0.83499671  1
  C  C232  1  0.17120416  0.50580119  0.84943923  1
  C  C233  1  0.17072671  0.51537771  0.86698232  1
  C  C234  1  0.97331721  0.50275260  0.84077107  1
  C  C235  1  0.99363163  0.52632203  0.86414405  1
  C  C236  1  0.05591844  0.39318173  0.76652521  1
  C  C237  1  0.05701813  0.50517129  0.79950620  1
  C  C238  1  0.11065974  0.49806894  0.83622044  1
  C  C239  1  0.06235828  0.42735948  0.74275301  1
  C  C240  1  0.13498765  0.50001139  0.80849774  1
  C  C241  1  0.03578118  0.56693861  0.24861605  1
  C  C242  1  0.02089321  0.53736768  0.22574168  1
  C  C243  1  0.03183954  0.61232295  0.27180382  1
  C  C244  1  0.01984146  0.38134796  0.28525426  1
  C  C245  1  0.02539608  0.44339139  0.24477337  1
  C  C246  1  0.00937184  0.49940465  0.20486263  1
  C  C247  1  0.05015766  0.50508973  0.21174952  1
  C  C248  1  0.02254252  0.49001258  0.23682013  1
  C  C249  1  0.12974686  0.51646116  0.14851594  1
  C  C250  1  0.07006668  0.52898643  0.16647838  1
  C  C251  1  0.01466855  0.60567879  0.25962696  1
  C  C252  1  0.02250472  0.40234636  0.27143404  1
  C  C253  1  0.96925726  0.50038093  0.20204645  1
  C  C254  1  0.02188784  0.45051961  0.26322024  1
  C  C255  1  0.01662641  0.58325894  0.24813310  1
  C  C256  1  0.08997763  0.50509334  0.18989526  1
  C  C257  1  0.01167006  0.65211938  0.28542911  1
  C  C258  1  0.14822822  0.50062680  0.15072179  1
  C  C259  1  0.01875042  0.35438510  0.28090060  1
  C  C260  1  0.10949955  0.51595096  0.16053092  1
  C  C261  1  0.03002961  0.63560094  0.28394949  1
  C  C262  1  0.05133204  0.59571426  0.27150346  1
  C  C263  1  0.05312973  0.57296099  0.26029093  1
  C  C264  1  0.02856670  0.41635406  0.23947519  1
  C  C265  1  0.93159337  0.50687041  0.18051522  1
  C  C266  1  0.95358515  0.50355065  0.17233171  1
  C  C267  1  0.92913616  0.50522377  0.19989006  1
  C  C268  1  0.07067456  0.51803883  0.18406253  1
  C  C269  1  0.91191959  0.51051043  0.16968948  1
  C  C270  1  0.91273188  0.51526268  0.15126278  1
  C  C271  1  0.10928584  0.50444379  0.17836101  1
  C  C272  1  0.08921211  0.52771466  0.15481267  1
  C  C273  1  0.02714206  0.39596960  0.25261120  1
  C  C274  1  0.02571259  0.50790138  0.21964917  1
  C  C275  1  0.97217846  0.50001714  0.18295454  1
  C  C276  1  0.02084488  0.43013865  0.27636946  1
  C  C277  1  0.94775605  0.50248543  0.21057007  1
  C  C278  1  0.72886147  0.51534704  0.00904916  1
  C  C279  1  0.71978324  0.51229084  0.99182755  1
  C  C280  1  0.71567866  0.51305037  0.02550553  1
  C  C281  1  0.69652190  0.51103153  0.99085350  1
  C  C282  1  0.69217109  0.51208451  0.02459065  1
  C  C283  1  0.68294499  0.51115950  0.00720831  1
  C  C284  1  0.62465271  0.50360102  0.01438829  1
  C  C285  1  0.61965579  0.49997682  0.99591780  1
  C  C286  1  0.60681478  0.50318235  0.02792092  1
  C  C287  1  0.59738836  0.49894819  0.99111118  1
  C  C288  1  0.58481608  0.50521571  0.02256398  1
  C  C289  1  0.58070407  0.50821518  0.00375920  1
  C  C290  1  0.35321062  0.51216930  0.00956222  1
  C  C291  1  0.36227129  0.51183097  0.02695511  1
  C  C292  1  0.36684235  0.51035334  0.99340389  1
  C  C293  1  0.38553116  0.51190284  0.02803735  1
  C  C294  1  0.39021983  0.50961344  0.99441581  1
  C  C295  1  0.39931272  0.51074085  0.01178472  1
  C  C296  1  0.45767097  0.50529393  0.00484600  1
  C  C297  1  0.46190875  0.50300439  0.02352874  1
  C  C298  1  0.47608020  0.50432182  0.99181630  1
  C  C299  1  0.48371605  0.50018940  0.02910059  1
  C  C300  1  0.49794649  0.50436654  0.99769774  1
  C  C301  1  0.50206502  0.50391780  0.01662994  1
  C  C302  1  0.88209225  0.47902914  0.89667217  1
  C  C303  1  0.87209736  0.50439020  0.90182748  1
  C  C304  1  0.88385884  0.52824463  0.89551424  1
  C  C305  1  0.90396445  0.52685701  0.88522721  1
  C  C306  1  0.91356299  0.50145552  0.87992044  1
  C  C307  1  0.90166700  0.47769463  0.88578982  1
  C  C308  1  0.85178112  0.50545935  0.91251255  1
  C  C309  1  0.83393070  0.50598807  0.92179571  1
  C  C310  1  0.81449497  0.50655990  0.93190175  1
  C  C311  1  0.79664460  0.50709290  0.94117918  1
  C  C312  1  0.77644068  0.50809677  0.95207492  1
  C  C313  1  0.76611064  0.53327676  0.95703638  1
  C  C314  1  0.74701868  0.53445287  0.96865063  1
  C  C315  1  0.73708955  0.51054923  0.97594720  1
  C  C316  1  0.74577368  0.48536099  0.96993321  1
  C  C317  1  0.76499827  0.48415739  0.95842684  1
  C  C318  1  0.85303344  0.52277541  0.13606285  1
  C  C319  1  0.85422693  0.51157207  0.11802558  1
  C  C320  1  0.87551026  0.50083638  0.11180712  1
  C  C321  1  0.89415560  0.50234406  0.12235746  1
  C  C322  1  0.89289859  0.51376824  0.14021604  1
  C  C323  1  0.87148187  0.52340810  0.14683109  1
  C  C324  1  0.83530487  0.51113547  0.10716166  1
  C  C325  1  0.81848606  0.51114503  0.09792709  1
  C  C326  1  0.80015664  0.51115511  0.08787572  1
  C  C327  1  0.78338668  0.51106835  0.07859288  1
  C  C328  1  0.76493826  0.51025875  0.06714105  1
  C  C329  1  0.76747666  0.49711945  0.04983756  1
  C  C330  1  0.75018398  0.49647726  0.03791436  1
  C  C331  1  0.72969183  0.51031475  0.04179951  1
  C  C332  1  0.72592489  0.52096194  0.05957702  1
  C  C333  1  0.74323773  0.52117938  0.07181346  1
  C  C334  1  0.22084971  0.48761545  0.89105641  1
  C  C335  1  0.22786907  0.51034019  0.90154540  1
  C  C336  1  0.21457311  0.53434635  0.90052915  1
  C  C337  1  0.19588995  0.53542727  0.89005612  1
  C  C338  1  0.18976018  0.51329167  0.87885514  1
  C  C339  1  0.20276642  0.48918516  0.87988773  1
  C  C340  1  0.24676792  0.50943727  0.91241270  1
  C  C341  1  0.26342857  0.50932618  0.92182321  1
  C  C342  1  0.28157217  0.50925315  0.93205999  1
  C  C343  1  0.29824374  0.50922975  0.94145157  1
  C  C344  1  0.31719860  0.50980996  0.95232262  1
  C  C345  1  0.32358421  0.53409088  0.96138992  1
  C  C346  1  0.34128260  0.53446350  0.97300556  1
  C  C347  1  0.35345566  0.51060749  0.97639256  1
  C  C348  1  0.34925743  0.48731753  0.96590186  1
  C  C349  1  0.33116236  0.48670368  0.95455929  1
  C  C350  1  0.19938333  0.48043198  0.12137735  1
  C  C351  1  0.21047251  0.50568153  0.11733218  1
  C  C352  1  0.19977637  0.52948889  0.12465710  1
  C  C353  1  0.17965438  0.52817541  0.13493574  1
  C  C354  1  0.16910738  0.50284172  0.13931609  1
  C  C355  1  0.17982067  0.47909012  0.13227076  1
  C  C356  1  0.23081169  0.50661733  0.10667914  1
  C  C357  1  0.24866528  0.50694152  0.09740171  1
  C  C358  1  0.26810136  0.50728617  0.08730221  1
  C  C359  1  0.28595406  0.50760880  0.07802868  1
  C  C360  1  0.30612984  0.50839490  0.06710297  1
  C  C361  1  0.31770846  0.53330114  0.06320450  1
  C  C362  1  0.33685599  0.53438622  0.05161491  1
  C  C363  1  0.34512233  0.51072360  0.04297042  1
  C  C364  1  0.33522049  0.48555563  0.04792666  1
  C  C365  1  0.31627272  0.48439417  0.05969809  1
  C  C366  1  0.53329197  0.53860685  0.02183456  1
  C  C367  1  0.55200404  0.54472594  0.01007259  1
  C  C368  1  0.56426610  0.56868300  0.01297123  1
  C  C369  1  0.55528569  0.58879254  0.02462659  1
  C  C370  1  0.53365654  0.58512030  0.03298671  1
  C  C371  1  0.52274710  0.55995751  0.03165829  1
  C  C372  1  0.52504219  0.50939125  0.02400920  1
  C  C373  1  0.56116993  0.52394177  -0.00344812  1
  C  C374  1  0.07551659  0.14603524  0.66539817  1
  C  C375  1  0.08107822  0.16915101  0.65442413  1
  C  C376  1  0.08821468  0.16403718  0.63591063  1
  C  C377  1  0.08844887  0.13780426  0.62856694  1
  C  C378  1  0.08150071  0.11530945  0.63949420  1
  C  C379  1  0.07665442  0.12014595  0.65819489  1
  C  C380  1  0.07942543  0.19494834  0.66270563  1
  C  C381  1  0.07706573  0.21591833  0.67173845  1
  C  C382  1  0.07432841  0.23831983  0.68201465  1
  C  C383  1  0.07181319  0.25887212  0.69145287  1
  C  C384  1  0.06922763  0.28219514  0.70236647  1
  C  C385  1  0.07467054  0.30872095  0.69552536  1
  C  C386  1  0.07256281  0.33147765  0.70648241  1
  C  C387  1  0.06516146  0.32918225  0.72522514  1
  C  C388  1  0.05889422  0.30296271  0.73187111  1
  C  C389  1  0.06080738  0.28029915  0.72091565  1
  C  C390  1  0.07950073  0.86298938  0.66563586  1
  C  C391  1  0.08150731  0.83839247  0.65545812  1
  C  C392  1  0.08398422  0.84107589  0.63611258  1
  C  C393  1  0.08662081  0.86641540  0.62784724  1
  C  C394  1  0.08768143  0.89031427  0.63844854  1
  C  C395  1  0.08085709  0.88808640  0.65711525  1
  C  C396  1  0.08043637  0.81321682  0.66461575  1
  C  C397  1  0.07937048  0.79204447  0.67357279  1
  C  C398  1  0.07803127  0.76924236  0.68358946  1
  C  C399  1  0.07678995  0.74830486  0.69278419  1
  C  C400  1  0.07515312  0.72410483  0.70292282  1
  C  C401  1  0.07510301  0.69834549  0.69393731  1
  C  C402  1  0.07298454  0.67441912  0.70365187  1
  C  C403  1  0.07187581  0.67451817  0.72305567  1
  C  C404  1  0.07237260  0.69993337  0.73212446  1
  C  C405  1  0.07338643  0.72395425  0.72243086  1
  C  C406  1  0.99565973  0.86409837  0.35359569  1
  C  C407  1  1.00113133  0.84095114  0.36410450  1
  C  C408  1  0.00476915  0.84573168  0.38293041  1
  C  C409  1  0.00131966  0.87120399  0.39090888  1
  C  C410  1  0.99414222  0.89346314  0.38043211  1
  C  C411  1  0.99332615  0.88954504  0.36144073  1
  C  C412  1  0.00298384  0.81549440  0.35532233  1
  C  C413  1  0.00406303  0.79440082  0.34628388  1
  C  C414  1  0.00521826  0.77174496  0.33608884  1
  C  C415  1  0.00628964  0.75095316  0.32673897  1
  C  C416  1  0.00786008  0.72684962  0.31648378  1
  C  C417  1  0.01489472  0.70206322  0.32460497  1
  C  C418  1  0.01689324  0.67831872  0.31468738  1
  C  C419  1  0.01088584  0.67725249  0.29611732  1
  C  C420  1  0.00377301  0.70173017  0.28798179  1
  C  C421  1  0.00270467  0.72578041  0.29764997  1
  C  C422  1  -0.00002122  0.14791405  0.35306025  1
  C  C423  1  0.00141795  0.17118235  0.36444868  1
  C  C424  1  -0.00037842  0.16626915  0.38365212  1
  C  C425  1  0.99899926  0.13996777  0.39079326  1
  C  C426  1  0.99968936  0.11699128  0.37907674  1
  C  C427  1  0.99750954  0.12205008  0.36032890  1
  C  C428  1  0.00401515  0.19696262  0.35614385  1
  C  C429  1  0.00638436  0.21816189  0.34729656  1
  C  C430  1  0.00883761  0.24074458  0.33709333  1
  C  C431  1  0.01107604  0.26143579  0.32770739  1
  C  C432  1  0.01336153  0.28472018  0.31664789  1
  C  C433  1  0.01398966  0.31153067  0.32407259  1
  C  C434  1  0.01600655  0.33423631  0.31300075  1
  C  C435  1  0.01732917  0.33173563  0.29357345  1
  C  C436  1  0.01717461  0.30504697  0.28615565  1
  C  C437  1  0.01521666  0.28243586  0.29717998  1
  C  C438  1  0.02853647  0.02018343  0.48817464  1
  C  C439  1  0.05286212  -0.00361614  0.51287029  1
  C  C440  1  0.04259319  0.02285131  0.50528086  1
  N  N441  1  0.06960014  0.99606272  0.54496756  1
  N  N442  1  0.08397367  0.07241208  0.61779117  1
  N  N443  1  0.08726534  0.93712988  0.62260138  1
  N  N444  1  0.99170900  0.01440047  0.47478176  1
  N  N445  1  0.99433085  0.93547716  0.40207132  1
  N  N446  1  0.99628142  0.07255663  0.39866942  1
  N  N447  1  0.65989581  0.50936047  0.00449231  1
  N  N448  1  0.64739587  0.50665341  0.01888286  1
  N  N449  1  0.42231087  0.50999629  0.01440299  1
  N  N450  1  0.43500282  0.50782502  0.00003808  1
  O  O451  1  0.05894303  0.03690648  0.55685013  1
  O  O452  1  0.10259526  0.04137525  0.63447472  1
  O  O453  1  0.10193053  0.92965291  0.59372482  1
  O  O454  1  0.99054030  0.96935621  0.46766494  1
  O  O455  1  0.00822846  0.96596068  0.38095141  1
  O  O456  1  0.02223516  0.07638479  0.42071013  1
  O  O457  1  0.04375729  0.54201337  0.78172249  1
  O  O458  1  0.09591141  0.49554938  0.80590169  1
  O  O459  1  0.03097103  0.51910226  0.82374883  1
  O  O460  1  0.05641580  0.45944728  0.78797467  1
  O  O461  1  0.03890614  0.54491610  0.23753528  1
  O  O462  1  0.98680120  0.49787242  0.21328279  1
  O  O463  1  0.05192148  0.52154099  0.19532662  1
  O  O464  1  0.02609049  0.46215448  0.23109197  1
