# generated using pymatgen
data_CuH210C231(NO2)6
_symmetry_space_group_name_H-M   'P 1'
_cell_length_a   67.54731873
_cell_length_b   67.94222584
_cell_length_c   31.73910633
_cell_angle_alpha   90.29618164
_cell_angle_beta   89.05947092
_cell_angle_gamma   120.05475093
_symmetry_Int_Tables_number   1
_chemical_formula_structural   CuH210C231(NO2)6
_chemical_formula_sum   'Cu1 H210 C231 N6 O12'
_cell_volume   126058.49790327
_cell_formula_units_Z   1
loop_
 _symmetry_equiv_pos_site_id
 _symmetry_equiv_pos_as_xyz
  1  'x, y, z'
loop_
 _atom_site_type_symbol
 _atom_site_label
 _atom_site_symmetry_multiplicity
 _atom_site_fract_x
 _atom_site_fract_y
 _atom_site_fract_z
 _atom_site_occupancy
  Cu  Cu0  1  0.67956841  0.37012339  0.51879660  1
  H  H1  1  0.01327249  0.07251899  0.04028639  1
  H  H2  1  0.97410847  0.00225485  0.00214356  1
  H  H3  1  0.04781366  0.03579723  0.00719314  1
  H  H4  1  0.08112730  0.07620897  0.04829233  1
  H  H5  1  0.07643670  0.07606544  0.99275995  1
  H  H6  1  0.97652451  0.06547830  0.05428834  1
  H  H7  1  0.99024503  0.07285963  0.00307718  1
  H  H8  1  0.98734442  0.97641889  0.03713131  1
  H  H9  1  0.98465680  0.96611567  0.98420778  1
  H  H10  1  0.68827027  0.18689451  0.76530779  1
  H  H11  1  0.63744169  0.15037470  0.78037390  1
  H  H12  1  0.63010292  0.12182294  0.83308064  1
  H  H13  1  0.64231580  0.10748283  0.89217922  1
  H  H14  1  0.71101041  0.16423947  0.87825387  1
  H  H15  1  0.69874354  0.17940335  0.82031022  1
  H  H16  1  0.66174900  0.09430059  0.93355284  1
  H  H17  1  0.65627086  0.11423578  0.95961273  1
  H  H18  1  0.67744535  0.14839869  0.05028062  1
  H  H19  1  0.65487213  0.12537562  0.02418166  1
  H  H20  1  0.67709610  0.14775053  0.99451858  1
  H  H21  1  0.68689071  0.08848395  0.91856908  1
  H  H22  1  0.67875673  0.06568464  0.95429019  1
  H  H23  1  0.70769871  0.08274661  0.93782617  1
  H  H24  1  0.73093817  0.12645680  0.11180716  1
  H  H25  1  0.74664075  0.12112051  0.07248746  1
  H  H26  1  0.72358608  0.09834594  0.09960949  1
  H  H27  1  0.72112120  0.07830392  0.04500739  1
  H  H28  1  0.71639282  0.07438988  0.98991928  1
  H  H29  1  0.73360894  0.05813720  0.01262909  1
  H  H30  1  0.75904375  0.04284112  0.01651338  1
  H  H31  1  0.81750126  0.11036152  0.99929258  1
  H  H32  1  0.79126875  0.12592046  0.99672880  1
  H  H33  1  0.82431284  0.07877425  0.01023376  1
  H  H34  1  0.78079291  0.03107820  0.01057763  1
  H  H35  1  0.72342656  0.14957595  0.10261882  1
  H  H36  1  0.70382029  0.15697878  0.08246844  1
  H  H37  1  0.72006413  0.17392987  0.13994611  1
  H  H38  1  0.71486351  0.19732145  0.19314382  1
  H  H39  1  0.65376459  0.13797667  0.23996597  1
  H  H40  1  0.65833233  0.11483865  0.18431580  1
  H  H41  1  0.69839570  0.20155419  0.25289576  1
  H  H42  1  0.64819492  0.16725197  0.27536820  1
  H  H43  1  0.50331657  0.39675269  0.28280207  1
  H  H44  1  0.50613965  0.35346690  0.26228770  1
  H  H45  1  0.48413728  0.32913413  0.20972107  1
  H  H46  1  0.45687930  0.31802318  0.15210586  1
  H  H47  1  0.44910021  0.37629336  0.17711481  1
  H  H48  1  0.47599081  0.38724834  0.23608732  1
  H  H49  1  0.42504282  0.30723601  0.11756484  1
  H  H50  1  0.45035828  0.32623723  0.08950398  1
  H  H51  1  0.46351860  0.36094603  -0.00063710  1
  H  H52  1  0.46253039  0.33755473  0.02489048  1
  H  H53  1  0.46382974  0.36013614  0.05508891  1
  H  H54  1  0.39397486  0.29894693  0.13077477  1
  H  H55  1  0.37969787  0.27696550  0.09358569  1
  H  H56  1  0.36721281  0.29299528  0.11210810  1
  H  H57  1  0.38799003  0.33850991  0.93849094  1
  H  H58  1  0.36613776  0.33220932  0.97688715  1
  H  H59  1  0.36770960  0.31008377  0.95050077  1
  H  H60  1  0.34968407  0.29005878  0.00500951  1
  H  H61  1  0.35011894  0.28583635  0.06015331  1
  H  H62  1  0.31717745  0.26945576  0.03498474  1
  H  H63  1  0.27582565  0.25335227  0.03504366  1
  H  H64  1  0.28412719  0.32017695  0.05256135  1
  H  H65  1  0.32616808  0.33641502  0.05503257  1
  H  H66  1  0.24318288  0.28210029  0.05297629  1
  H  H67  1  0.24673819  0.25384696  -0.01716839  1
  H  H68  1  0.41895883  0.36441439  0.95141522  1
  H  H69  1  0.44613453  0.36941239  0.96666092  1
  H  H70  1  0.44753699  0.38669802  0.90555009  1
  H  H71  1  0.47636874  0.40583172  0.84928534  1
  H  H72  1  0.46930950  0.34096392  0.81320874  1
  H  H73  1  0.44149613  0.32247983  0.87098390  1
  H  H74  1  0.49896196  0.40480145  0.78991572  1
  H  H75  1  0.49585845  0.35811716  0.77578970  1
  H  H76  1  0.86583873  0.55534535  0.75413324  1
  H  H77  1  0.89902140  0.53781503  0.77419266  1
  H  H78  1  0.92781658  0.55928337  0.82593364  1
  H  H79  1  0.94266259  0.58654222  0.88416411  1
  H  H80  1  0.88786103  0.60102911  0.86849160  1
  H  H81  1  0.87228892  0.57298812  0.81111429  1
  H  H82  1  0.95729204  0.62091416  0.92242173  1
  H  H83  1  0.93727775  0.59588290  0.94954597  1
  H  H84  1  0.90327693  0.58402665  0.04201767  1
  H  H85  1  0.92626632  0.58394176  0.01526684  1
  H  H86  1  0.90403823  0.58384330  0.98627359  1
  H  H87  1  0.96460068  0.65214778  0.90876555  1
  H  H88  1  0.98769125  0.66703627  0.94354702  1
  H  H89  1  0.97058108  0.67873172  0.92861194  1
  H  H90  1  0.92705776  0.65996843  0.10382076  1
  H  H91  1  0.93323892  0.68075565  0.06446457  1
  H  H92  1  0.95561687  0.68022946  0.09145848  1
  H  H93  1  0.97661625  0.69691810  0.03761220  1
  H  H94  1  0.98148314  0.69611247  0.98262856  1
  H  H95  1  0.99745173  0.73094796  0.00854978  1
  H  H96  1  0.01130790  0.77187095  0.01105656  1
  H  H97  1  0.94252550  0.75847432  0.99023841  1
  H  H98  1  0.92858376  0.71715504  0.98846693  1
  H  H99  1  0.96870655  0.79340902  -0.00702309  1
  H  H100  1  0.01960154  0.81319394  0.01443135  1
  H  H101  1  0.90397007  0.62945286  0.09605280  1
  H  H102  1  0.89603707  0.60219976  0.07633840  1
  H  H103  1  0.87959637  0.60255323  0.13426857  1
  H  H104  1  0.85547173  0.57334374  0.18609858  1
  H  H105  1  0.91475231  0.57190709  0.23136108  1
  H  H106  1  0.93844702  0.59956975  0.17582881  1
  H  H107  1  0.85035358  0.55252719  0.24364559  1
  H  H108  1  0.88402598  0.53677661  0.26867869  1
  H  H109  1  0.64765332  0.37384133  0.45270717  1
  H  H110  1  0.60092855  0.29872066  0.51989974  1
  H  H111  1  0.71539259  0.46059841  0.43165866  1
  H  H112  1  0.71454548  0.39667687  0.44110727  1
  H  H113  1  0.68629466  0.44753702  0.48724298  1
  H  H114  1  0.58353742  0.31073664  0.46603397  1
  H  H115  1  0.62935230  0.41646091  0.58178388  1
  H  H116  1  0.64625629  0.36326126  0.59690864  1
  H  H117  1  0.65824704  0.43275476  0.52508408  1
  H  H118  1  0.63541849  0.27412982  0.59581056  1
  H  H119  1  0.69255853  0.34331671  0.59931474  1
  H  H120  1  0.61845954  0.28592736  0.54151832  1
  H  H121  1  0.73258277  0.32697406  0.45336024  1
  H  H122  1  0.67074475  0.33149831  0.44899504  1
  H  H123  1  0.74844260  0.35915035  0.50171025  1
  H  H124  1  0.77618800  0.42335264  0.57359066  1
  H  H125  1  0.70605716  0.40834206  0.58762942  1
  H  H126  1  0.76329419  0.39296567  0.52059883  1
  H  H127  1  0.69377750  0.21242499  0.70648621  1
  H  H128  1  0.70470672  0.24589124  0.66510453  1
  H  H129  1  0.69805708  0.27614064  0.64068187  1
  H  H130  1  0.62966457  0.24019739  0.69419223  1
  H  H131  1  0.63618107  0.20993110  0.71846846  1
  H  H132  1  0.64228059  0.27607377  0.66382025  1
  H  H133  1  0.64309365  0.18292414  0.73396238  1
  H  H134  1  0.69252909  0.30836994  0.64041079  1
  H  H135  1  0.51365821  0.35257383  0.32705955  1
  H  H136  1  0.53181704  0.33473389  0.35444672  1
  H  H137  1  0.56316382  0.33424629  0.38824719  1
  H  H138  1  0.59840346  0.40789320  0.39797890  1
  H  H139  1  0.56764797  0.40820530  0.35951969  1
  H  H140  1  0.61636042  0.38652611  0.43014548  1
  H  H141  1  0.53599814  0.40490783  0.32818081  1
  H  H142  1  0.58534755  0.33452343  0.41864378  1
  H  H143  1  0.54415022  0.38384287  0.77672606  1
  H  H144  1  0.57882378  0.38569217  0.75514397  1
  H  H145  1  0.60332890  0.38289789  0.70058493  1
  H  H146  1  0.55720594  0.38049703  0.60503662  1
  H  H147  1  0.53291952  0.38367177  0.65945781  1
  H  H148  1  0.59158190  0.38092813  0.58351171  1
  H  H149  1  0.51903899  0.39755741  0.71448179  1
  H  H150  1  0.61591852  0.36738342  0.64800442  1
  H  H151  1  0.85029528  0.49738677  0.30999667  1
  H  H152  1  0.81991515  0.46452730  0.34807031  1
  H  H153  1  0.78207864  0.44464684  0.38122506  1
  H  H154  1  0.77635421  0.50489650  0.36775145  1
  H  H155  1  0.81351573  0.52430557  0.33233178  1
  H  H156  1  0.74607253  0.47336864  0.40114743  1
  H  H157  1  0.84891857  0.54183519  0.32258774  1
  H  H158  1  0.74600566  0.42779541  0.40057389  1
  H  H159  1  0.84378297  0.53629950  0.68934338  1
  H  H160  1  0.81226380  0.51548570  0.64273985  1
  H  H161  1  0.77949883  0.47978601  0.61946327  1
  H  H162  1  0.80108189  0.44230118  0.69771241  1
  H  H163  1  0.83369864  0.47788716  0.72136767  1
  H  H164  1  0.76840001  0.42171935  0.65485847  1
  H  H165  1  0.86472719  0.51028457  0.73166285  1
  H  H166  1  0.74208551  0.44453592  0.62491743  1
  H  H167  1  0.64162609  0.20138024  0.31239549  1
  H  H168  1  0.63824989  0.23193020  0.34659030  1
  H  H169  1  0.65530440  0.26889817  0.38085776  1
  H  H170  1  0.72074256  0.27176098  0.38059435  1
  H  H171  1  0.70397432  0.23535260  0.34457090  1
  H  H172  1  0.71901851  0.30288225  0.40850994  1
  H  H173  1  0.68570122  0.20046461  0.33333199  1
  H  H174  1  0.67353110  0.30321247  0.40460108  1
  H  H175  1  0.96106275  0.08184822  0.00657472  1
  H  H176  1  0.93188786  0.05071130  0.05677684  1
  H  H177  1  0.92396069  0.07688593  0.01392775  1
  H  H178  1  0.81223525  0.03337601  0.06552597  1
  H  H179  1  0.84788123  0.06265838  0.02694557  1
  H  H180  1  0.84650549  0.03018637  0.06926480  1
  H  H181  1  0.80443234  0.01561550  0.02123476  1
  H  H182  1  0.83966354  0.04540702  0.98169103  1
  H  H183  1  0.83941159  0.01359850  0.02295687  1
  H  H184  1  0.95453096  0.06062592  0.96820521  1
  H  H185  1  0.92392110  0.03139959  0.01465786  1
  H  H186  1  0.91687836  0.05851546  0.97003328  1
  H  H187  1  0.08068880  0.11411053  0.99613519  1
  H  H188  1  0.12049766  0.11924951  0.99502285  1
  H  H189  1  0.11263954  0.15211041  0.99670563  1
  H  H190  1  0.22942740  0.21933303  0.01525006  1
  H  H191  1  0.19447203  0.22563659  -0.00218135  1
  H  H192  1  0.19523087  0.18945912  -0.00045473  1
  H  H193  1  0.22803483  0.22938234  0.06599253  1
  H  H194  1  0.19122283  0.22541683  0.05304797  1
  H  H195  1  0.19430577  0.18914429  0.05536553  1
  H  H196  1  0.08060081  0.11378936  0.05171677  1
  H  H197  1  0.12007969  0.11854608  0.05058666  1
  H  H198  1  0.11166371  0.15118400  0.05241039  1
  H  H199  1  0.02628433  0.97325674  0.99421010  1
  H  H200  1  0.99270498  0.93256322  0.99085980  1
  H  H201  1  0.03514682  0.94520843  0.99663303  1
  H  H202  1  0.98666027  0.82997339  0.99168401  1
  H  H203  1  0.02865482  0.86200841  0.98897828  1
  H  H204  1  0.99265631  0.86388172  0.98636581  1
  H  H205  1  0.98895676  0.82793425  0.04651556  1
  H  H206  1  0.02780908  0.86191626  0.04480048  1
  H  H207  1  0.98976166  0.86182055  0.04190143  1
  H  H208  1  0.02118150  0.97340773  0.04886908  1
  H  H209  1  0.99038610  0.93252313  0.04624401  1
  H  H210  1  0.03205994  0.94345217  0.05219764  1
  C  C211  1  0.03259266  0.05663302  0.02270076  1
  C  C212  1  0.01220713  0.05707753  0.02759700  1
  C  C213  1  0.99152071  0.03798872  0.01705552  1
  C  C214  1  0.99060176  0.01745092  0.00784366  1
  C  C215  1  0.01102681  0.01710674  0.00504358  1
  C  C216  1  0.03225373  0.03680220  0.01047250  1
  C  C217  1  0.07501169  0.08296185  0.02333856  1
  C  C218  1  0.97454409  0.06109393  0.02052475  1
  C  C219  1  0.99682707  0.97565302  0.00929638  1
  C  C220  1  0.66968404  0.17937915  0.76364995  1
  C  C221  1  0.65564444  0.16030312  0.78737922  1
  C  C222  1  0.66325360  0.15173238  0.82132206  1
  C  C223  1  0.64784549  0.13138666  0.84305694  1
  C  C224  1  0.65469899  0.12332140  0.87666693  1
  C  C225  1  0.67746612  0.13536711  0.88961624  1
  C  C226  1  0.69325107  0.15516708  0.86825003  1
  C  C227  1  0.68625283  0.16345465  0.83520476  1
  C  C228  1  0.66994315  0.11066733  0.95035467  1
  C  C229  1  0.68376361  0.11060403  0.98706578  1
  C  C230  1  0.69583764  0.09863260  0.98370879  1
  C  C231  1  0.71029922  0.10025787  0.01681126  1
  C  C232  1  0.71338480  0.11424958  0.05224987  1
  C  C233  1  0.70180137  0.12672394  0.05432913  1
  C  C234  1  0.68661154  0.12469184  0.02222009  1
  C  C235  1  0.67349965  0.13719507  0.02302072  1
  C  C236  1  0.69221887  0.08328135  0.94685155  1
  C  C237  1  0.72937116  0.11523275  0.08565628  1
  C  C238  1  0.72286732  0.08722035  0.01498608  1
  C  C239  1  0.76084870  0.09326282  0.00626593  1
  C  C240  1  0.75199284  0.06986818  0.01051635  1
  C  C241  1  0.76667089  0.06112083  0.01201265  1
  C  C242  1  0.79071536  0.07533030  0.00852779  1
  C  C243  1  0.79911439  0.09889823  0.00262531  1
  C  C244  1  0.78446650  0.10773629  0.00132162  1
  C  C245  1  0.80607440  0.06615871  0.01172228  1
  C  C246  1  0.79881662  0.04357540  0.01523593  1
  C  C247  1  0.70589030  0.14243437  0.09094212  1
  C  C248  1  0.68848579  0.14319588  0.15673690  1
  C  C249  1  0.70492177  0.16619978  0.16040285  1
  C  C250  1  0.70235250  0.17923665  0.19130105  1
  C  C251  1  0.68378394  0.16983463  0.22053850  1
  C  C252  1  0.66798340  0.14616638  0.21745393  1
  C  C253  1  0.67044754  0.13304267  0.18615812  1
  C  C254  1  0.68302624  0.18472819  0.25255457  1
  C  C255  1  0.66574154  0.18090129  0.28063015  1
  C  C256  1  0.50844718  0.38394142  0.28596499  1
  C  C257  1  0.49952083  0.36513865  0.26007988  1
  C  C258  1  0.48287309  0.35934092  0.22721617  1
  C  C259  1  0.47660775  0.33964415  0.20266217  1
  C  C260  1  0.46136435  0.33346072  0.16980821  1
  C  C261  1  0.45176435  0.34691784  0.16020566  1
  C  C262  1  0.45697856  0.36612247  0.18451880  1
  C  C263  1  0.47223850  0.37225390  0.21756654  1
  C  C264  1  0.43345153  0.32334670  0.09981110  1
  C  C265  1  0.41930422  0.32330337  0.06368336  1
  C  C266  1  0.39518428  0.31057889  0.06669972  1
  C  C267  1  0.38227192  0.31222201  0.03373554  1
  C  C268  1  0.39315413  0.32670737  0.99873593  1
  C  C269  1  0.41725637  0.34014143  0.99744528  1
  C  C270  1  0.43056092  0.33772944  0.02866502  1
  C  C271  1  0.45626022  0.34973397  0.02678054  1
  C  C272  1  0.38347777  0.29421959  0.10251170  1
  C  C273  1  0.37819973  0.32706439  0.96452702  1
  C  C274  1  0.35661433  0.29881023  0.03517611  1
  C  C275  1  0.32442776  0.30423015  0.04368900  1
  C  C276  1  0.31024527  0.28083531  0.03829584  1
  C  C277  1  0.28674524  0.27174379  0.03726762  1
  C  C278  1  0.27659581  0.28555860  0.04062352  1
  C  C279  1  0.29132120  0.30903730  0.04874429  1
  C  C280  1  0.31492134  0.31824399  0.04991395  1
  C  C281  1  0.25200342  0.27441801  0.03676812  1
  C  C282  1  0.24077926  0.25434910  0.01494668  1
  C  C283  1  0.42850704  0.35589803  0.96061265  1
  C  C284  1  0.44387402  0.35358233  0.89325698  1
  C  C285  1  0.45304290  0.37690858  0.88631427  1
  C  C286  1  0.46878707  0.38753613  0.85373959  1
  C  C287  1  0.47559392  0.37526185  0.82658537  1
  C  C288  1  0.46515952  0.35141886  0.83348963  1
  C  C289  1  0.44933093  0.34076820  0.86597941  1
  C  C290  1  0.49235518  0.38655300  0.79333765  1
  C  C291  1  0.50137085  0.37596143  0.76918399  1
  C  C292  1  0.87178152  0.54301943  0.75493638  1
  C  C293  1  0.88997044  0.54715358  0.77993183  1
  C  C294  1  0.89889177  0.56379955  0.81328639  1
  C  C295  1  0.91879598  0.56819828  0.83534764  1
  C  C296  1  0.92713636  0.58353266  0.86850088  1
  C  C297  1  0.91579901  0.59519630  0.88076451  1
  C  C298  1  0.89641404  0.59165388  0.85908680  1
  C  C299  1  0.88789469  0.57603186  0.82638048  1
  C  C300  1  0.94096469  0.61299959  0.94025333  1
  C  C301  1  0.94161394  0.62725833  0.97734654  1
  C  C302  1  0.95462624  0.65122303  0.97448437  1
  C  C303  1  0.95409704  0.66430146  0.00874059  1
  C  C304  1  0.93952732  0.65391457  0.04419872  1
  C  C305  1  0.92637556  0.62994702  0.04624683  1
  C  C306  1  0.92768961  0.61647174  0.01337977  1
  C  C307  1  0.91464128  0.59092607  0.01444624  1
  C  C308  1  0.96997335  0.66277746  0.93705289  1
  C  C309  1  0.93869732  0.66928092  0.07759362  1
  C  C310  1  0.96812515  0.68980495  0.00739452  1
  C  C311  1  0.96196920  0.72149284  0.99922176  1
  C  C312  1  0.98524782  0.73685637  0.00506864  1
  C  C313  1  0.99316787  0.76014670  0.00590519  1
  C  C314  1  0.97803441  0.76851571  0.00012483  1
  C  C315  1  0.95457622  0.75242700  0.99404267  1
  C  C316  1  0.94663724  0.72930057  0.99337318  1
  C  C317  1  0.98394918  0.79228188  -0.00028218  1
  C  C318  1  0.00322735  0.81215429  0.00910707  1
  C  C319  1  0.91085937  0.61884948  0.08383602  1
  C  C320  1  0.91015980  0.60127671  0.14919099  1
  C  C321  1  0.88708846  0.59485810  0.15365843  1
  C  C322  1  0.87367803  0.57903041  0.18404904  1
  C  C323  1  0.88283833  0.56983944  0.21263366  1
  C  C324  1  0.90668157  0.57785887  0.20926101  1
  C  C325  1  0.92013239  0.59344316  0.17803077  1
  C  C326  1  0.86724687  0.55404062  0.24414584  1
  C  C327  1  0.87029859  0.54074551  0.27286775  1
  C  C328  1  0.64369924  0.29203156  0.58690645  1
  C  C329  1  0.64508052  0.32168731  0.54395876  1
  C  C330  1  0.67576886  0.33060350  0.58759670  1
  C  C331  1  0.68481558  0.41503232  0.49564096  1
  C  C332  1  0.63388035  0.29886086  0.55667500  1
  C  C333  1  0.70900360  0.40843448  0.45226707  1
  C  C334  1  0.66500830  0.30778705  0.60368635  1
  C  C335  1  0.69265932  0.43639318  0.47698251  1
  C  C336  1  0.71003179  0.44427852  0.44682986  1
  C  C337  1  0.72013809  0.43107711  0.43609259  1
  C  C338  1  0.75796550  0.41267331  0.56743298  1
  C  C339  1  0.72737570  0.38238716  0.52958118  1
  C  C340  1  0.71881072  0.40458871  0.57428413  1
  C  C341  1  0.71860514  0.36324822  0.50075193  1
  C  C342  1  0.75073156  0.39540786  0.53815355  1
  C  C343  1  0.68815643  0.33768607  0.45983376  1
  C  C344  1  0.74193035  0.41724186  0.58747276  1
  C  C345  1  0.73168269  0.35340945  0.48843629  1
  C  C346  1  0.72252172  0.33500974  0.46136170  1
  C  C347  1  0.70033096  0.32670285  0.44560797  1
  C  C348  1  0.63874418  0.40792575  0.57217805  1
  C  C349  1  0.66777391  0.40656495  0.52966281  1
  C  C350  1  0.64862612  0.37859309  0.58117908  1
  C  C351  1  0.63435194  0.32909174  0.51334327  1
  C  C352  1  0.65557890  0.41750937  0.54121465  1
  C  C353  1  0.60133096  0.32193320  0.47452155  1
  C  C354  1  0.63692916  0.35727668  0.46767562  1
  C  C355  1  0.63426812  0.38762560  0.59221694  1
  C  C356  1  0.61145363  0.31468392  0.50323845  1
  C  C357  1  0.61340487  0.34411498  0.45792788  1
  C  C358  1  0.66164459  0.19031396  0.73641187  1
  C  C359  1  0.67640763  0.20911723  0.71257143  1
  C  C360  1  0.67150019  0.22579565  0.69567988  1
  C  C361  1  0.68837409  0.24486109  0.67226610  1
  C  C362  1  0.68469205  0.26202645  0.65885813  1
  C  C363  1  0.66385921  0.26161427  0.66831687  1
  C  C364  1  0.64637714  0.24176443  0.68885224  1
  C  C365  1  0.65004040  0.22461001  0.70230666  1
  C  C366  1  0.65949279  0.27945464  0.65575493  1
  C  C367  1  0.67421876  0.29909789  0.63439027  1
  C  C368  1  0.52540537  0.38770526  0.31611156  1
  C  C369  1  0.52778023  0.36994305  0.33087013  1
  C  C370  1  0.54682899  0.37130683  0.35343287  1
  C  C371  1  0.54658377  0.35086085  0.36348675  1
  C  C372  1  0.56441041  0.35072432  0.38373396  1
  C  C373  1  0.58375205  0.37116523  0.39749053  1
  C  C374  1  0.58397004  0.39175553  0.38792851  1
  C  C375  1  0.56642171  0.39191154  0.36634274  1
  C  C376  1  0.60181906  0.37040102  0.42030756  1
  C  C377  1  0.60019840  0.35006433  0.42984262  1
  C  C378  1  0.51993057  0.38715313  0.73974248  1
  C  C379  1  0.53935974  0.38562683  0.74481700  1
  C  C380  1  0.55394963  0.38509846  0.71202512  1
  C  C381  1  0.57413325  0.38455354  0.72215969  1
  C  C382  1  0.58777562  0.38276927  0.69146519  1
  C  C383  1  0.58203299  0.38093621  0.64819971  1
  C  C384  1  0.56197587  0.38168656  0.63798672  1
  C  C385  1  0.54835931  0.38358209  0.66865446  1
  C  C386  1  0.59649521  0.37972450  0.61562345  1
  C  C387  1  0.61526807  0.37742157  0.62191078  1
  C  C388  1  0.85396167  0.53062004  0.30668701  1
  C  C389  1  0.84269403  0.50790820  0.31748464  1
  C  C390  1  0.82048766  0.49637667  0.33811411  1
  C  C391  1  0.81034272  0.47342991  0.35213199  1
  C  C392  1  0.78883259  0.46215290  0.37076460  1
  C  C393  1  0.77559189  0.47294926  0.37686149  1
  C  C394  1  0.78579612  0.49589639  0.36314600  1
  C  C395  1  0.80712403  0.50706298  0.34392687  1
  C  C396  1  0.75307662  0.46209727  0.39684052  1
  C  C397  1  0.74067034  0.43993426  0.40985487  1
  C  C398  1  0.85996818  0.52346573  0.72914553  1
  C  C399  1  0.84356167  0.52107591  0.70091792  1
  C  C400  1  0.82540081  0.49991687  0.68518788  1
  C  C401  1  0.80956548  0.49944303  0.65548872  1
  C  C402  1  0.79103067  0.47933139  0.64258435  1
  C  C403  1  0.78682590  0.45805216  0.65852700  1
  C  C404  1  0.80332482  0.45840292  0.68625801  1
  C  C405  1  0.82176997  0.47849736  0.69942591  1
  C  C406  1  0.76774431  0.43678206  0.64504879  1
  C  C407  1  0.75028138  0.43434892  0.62005436  1
  C  C408  1  0.67059965  0.19645681  0.31477491  1
  C  C409  1  0.65916712  0.20812748  0.32293867  1
  C  C410  1  0.66927843  0.22987244  0.34381681  1
  C  C411  1  0.65636823  0.24059867  0.35416551  1
  C  C412  1  0.66610131  0.26160713  0.37339756  1
  C  C413  1  0.68972169  0.27376028  0.38353677  1
  C  C414  1  0.70263136  0.26310938  0.37295659  1
  C  C415  1  0.69297206  0.24221060  0.35341411  1
  C  C416  1  0.70069028  0.29569954  0.40423506  1
  C  C417  1  0.69017642  0.30752371  0.41700624  1
  C  C418  1  0.95536841  0.06364542  0.00245163  1
  C  C419  1  0.93137238  0.04957374  0.02210357  1
  C  C420  1  0.91624154  0.05861760  0.00513878  1
  C  C421  1  0.89284913  0.04636753  0.01957789  1
  C  C422  1  0.81299977  0.03364760  0.03052034  1
  C  C423  1  0.83815974  0.04488681  0.01634836  1
  C  C424  1  0.84883066  0.03147720  0.03437449  1
  C  C425  1  0.87276735  0.04131830  0.02398766  1
  C  C426  1  0.08689354  0.10892743  0.02350028  1
  C  C427  1  0.11311291  0.12283467  0.02321406  1
  C  C428  1  0.11997931  0.14816531  0.02444893  1
  C  C429  1  0.14424698  0.16412977  0.02543586  1
  C  C430  1  0.22467023  0.23063933  0.03241566  1
  C  C431  1  0.19856071  0.22004751  0.02727198  1
  C  C432  1  0.18810734  0.19413094  0.02728029  1
  C  C433  1  0.16349181  0.18086180  0.02640516  1
  C  C434  1  0.01267408  0.96627841  0.01868836  1
  C  C435  1  1.00247903  0.94042739  0.01960965  1
  C  C436  1  0.02260664  0.93591245  0.02256522  1
  C  C437  1  0.01653335  0.91238519  0.02066917  1
  C  C438  1  -0.00112260  0.83167613  0.01635502  1
  C  C439  1  0.01712183  0.85717529  0.01662483  1
  C  C440  1  0.00282202  0.86910960  0.01584259  1
  C  C441  1  0.01468869  0.89349691  0.01894428  1
  N  N442  1  0.69247731  0.40097263  0.48151645  1
  N  N443  1  0.69681298  0.35497566  0.48678678  1
  N  N444  1  0.66429114  0.38745413  0.55038932  1
  N  N445  1  0.66598988  0.33725002  0.55951126  1
  N  N446  1  0.71182668  0.38746040  0.54712203  1
  N  N447  1  0.64697578  0.35006664  0.49465347  1
  O  O448  1  0.05146488  0.07655301  0.03306884  1
  O  O449  1  0.97165342  0.03847975  0.01622366  1
  O  O450  1  0.01219967  0.99840844  -0.00716103  1
  O  O451  1  0.68582482  0.12853520  0.92162025  1
  O  O452  1  0.68983400  0.13015593  0.12536450  1
  O  O453  1  0.74720792  0.10273189  0.00666860  1
  O  O454  1  0.43689617  0.34182592  0.12807345  1
  O  O455  1  0.42897845  0.34228079  0.92546629  1
  O  O456  1  0.34762568  0.31410026  0.04327456  1
  O  O457  1  0.92287960  0.61069136  0.91254590  1
  O  O458  1  0.92333403  0.61543170  0.11747483  1
  O  O459  1  0.95278593  0.69852860  0.99890118  1
