# generated using pymatgen
data_Mg3H164(C121O15)2
_symmetry_space_group_name_H-M   'P 1'
_cell_length_a   42.26773787
_cell_length_b   43.30283605
_cell_length_c   31.57627796
_cell_angle_alpha   94.28649943
_cell_angle_beta   88.11795755
_cell_angle_gamma   92.99803996
_symmetry_Int_Tables_number   1
_chemical_formula_structural   Mg3H164(C121O15)2
_chemical_formula_sum   'Mg3 H164 C242 O30'
_cell_volume   57529.62861891
_cell_formula_units_Z   1
loop_
 _symmetry_equiv_pos_site_id
 _symmetry_equiv_pos_as_xyz
  1  'x, y, z'
loop_
 _atom_site_type_symbol
 _atom_site_label
 _atom_site_symmetry_multiplicity
 _atom_site_fract_x
 _atom_site_fract_y
 _atom_site_fract_z
 _atom_site_occupancy
  Mg  Mg0  1  0.50866047  0.51463349  0.45267371  1
  Mg  Mg1  1  0.49384737  0.48913704  0.67819610  1
  Mg  Mg2  1  0.50120237  0.50219552  0.56559339  1
  H  H3  1  0.05714877  0.04082751  0.05535819  1
  H  H4  1  0.94594969  0.06391923  0.06850854  1
  H  H5  1  0.05583264  0.94257633  0.05571985  1
  H  H6  1  0.94729375  0.96590067  0.07743067  1
  H  H7  1  0.50468064  0.55259012  0.51643537  1
  H  H8  1  0.46208870  0.46538280  0.61741010  1
  H  H9  1  0.49707955  0.45128218  0.61417905  1
  H  H10  1  0.53988270  0.53877436  0.51351959  1
  H  H11  1  0.23279424  0.45421370  0.38435119  1
  H  H12  1  0.28371308  0.40919728  0.34918111  1
  H  H13  1  0.27901746  0.37769910  0.29044651  1
  H  H14  1  0.25055662  0.35369723  0.22910410  1
  H  H15  1  0.17007385  0.40833705  0.26486697  1
  H  H16  1  0.19846786  0.43251317  0.32724144  1
  H  H17  1  0.21666009  0.32802707  0.19144667  1
  H  H18  1  0.23253275  0.36153144  0.16774084  1
  H  H19  1  0.21176209  0.40296653  0.08129885  1
  H  H20  1  0.23869922  0.37867494  0.10199362  1
  H  H21  1  0.21424346  0.40163130  0.13685420  1
  H  H22  1  0.17683676  0.30591448  0.20641083  1
  H  H23  1  0.18033463  0.27439425  0.16780628  1
  H  H24  1  0.14257680  0.28610676  0.18662329  1
  H  H25  1  0.12294235  0.33862732  0.01583626  1
  H  H26  1  0.09635467  0.32363321  0.05501394  1
  H  H27  1  0.12309553  0.29934880  0.02630826  1
  H  H28  1  0.11759421  0.27280453  0.07919230  1
  H  H29  1  0.12462711  0.26924080  0.13391160  1
  H  H30  1  0.09479384  0.23752090  0.10688893  1
  H  H31  1  0.05180675  0.19914930  0.09987426  1
  H  H32  1  0.98367087  0.26999932  0.12550082  1
  H  H33  1  0.02808719  0.30941515  0.13348334  1
  H  H34  1  0.96692422  0.20752955  0.11751633  1
  H  H35  1  0.01676334  0.18287417  0.05476718  1
  H  H36  1  0.14066719  0.38195426  0.03289376  1
  H  H37  1  0.17903162  0.39870386  0.04224563  1
  H  H38  1  0.15369832  0.41274330  -0.01791737  1
  H  H39  1  0.17532217  0.44539392  0.92642793  1
  H  H40  1  0.24302188  0.37583823  0.88850615  1
  H  H41  1  0.21847015  0.34212447  0.94161659  1
  H  H42  1  0.21981679  0.45648019  0.87150630  1
  H  H43  1  0.24603722  0.39533319  0.83218127  1
  H  H44  1  0.59895683  0.26944051  0.82412560  1
  H  H45  1  0.53238723  0.23708946  0.83586278  1
  H  H46  1  0.52890535  0.19664741  0.88618213  1
  H  H47  1  0.55005769  0.17177986  0.94601841  1
  H  H48  1  0.63747859  0.22704788  0.93526125  1
  H  H49  1  0.61636368  0.25298328  0.87615205  1
  H  H50  1  0.57854504  0.14711892  0.99007525  1
  H  H51  1  0.56564320  0.18247313  0.01541637  1
  H  H52  1  0.58520990  0.22572140  0.11213002  1
  H  H53  1  0.55772798  0.20031155  0.08462854  1
  H  H54  1  0.58512134  0.22376394  0.05604935  1
  H  H55  1  0.62190359  0.13044513  0.97140005  1
  H  H56  1  0.61611920  0.09748967  0.00159132  1
  H  H57  1  0.65472930  0.11332728  0.99076435  1
  H  H58  1  0.67078387  0.16788657  0.17066299  1
  H  H59  1  0.69652619  0.15319808  0.12934760  1
  H  H60  1  0.66903860  0.12809097  0.15478251  1
  H  H61  1  0.67479592  0.09945703  0.09728646  1
  H  H62  1  0.66477850  0.09289997  0.04307645  1
  H  H63  1  0.70024543  0.06440785  0.05747229  1
  H  H64  1  0.74738349  0.03457545  0.06418628  1
  H  H65  1  0.80685872  0.11852109  0.05655816  1
  H  H66  1  0.75884638  0.14893237  0.05185117  1
  H  H67  1  0.83068235  0.07434479  0.06761336  1
  H  H68  1  0.79391385  0.01051501  0.06821574  1
  H  H69  1  0.65352352  0.20700020  0.16206530  1
  H  H70  1  0.61896342  0.22504092  0.14929421  1
  H  H71  1  0.64426832  0.23995048  0.20921453  1
  H  H72  1  0.62851621  0.27732876  0.26758081  1
  H  H73  1  0.55142661  0.21376999  0.30341371  1
  H  H74  1  0.56709287  0.17664453  0.24369108  1
  H  H75  1  0.59615066  0.29277933  0.32525232  1
  H  H76  1  0.53930340  0.25001938  0.35405867  1
  H  H77  1  0.41164613  0.73163094  0.77839465  1
  H  H78  1  0.47972741  0.75544579  0.80102898  1
  H  H79  1  0.48197075  0.79735733  0.85894743  1
  H  H80  1  0.45775251  0.82428195  0.92221756  1
  H  H81  1  0.36928042  0.77224357  0.89945042  1
  H  H82  1  0.39364505  0.74381735  0.83705704  1
  H  H83  1  0.42595728  0.85265089  0.96528091  1
  H  H84  1  0.43818299  0.81883867  0.98743539  1
  H  H85  1  0.41336358  0.77789958  0.07655768  1
  H  H86  1  0.44274899  0.80291271  0.05472588  1
  H  H87  1  0.41725509  0.77936569  0.02096882  1
  H  H88  1  0.38517623  0.87154847  0.95102187  1
  H  H89  1  0.38845380  0.90489955  0.98712968  1
  H  H90  1  0.35080777  0.88842388  0.97266367  1
  H  H91  1  0.32496049  0.83770548  0.14380379  1
  H  H92  1  0.30193075  0.85234405  0.10463164  1
  H  H93  1  0.32810464  0.87737291  0.13515705  1
  H  H94  1  0.32499688  0.90411686  0.08213597  1
  H  H95  1  0.33784387  0.91053088  0.02920867  1
  H  H96  1  0.30130935  0.93869003  0.05296181  1
  H  H97  1  0.25368821  0.96879632  0.05877132  1
  H  H98  1  0.19619967  0.88579746  0.02366429  1
  H  H99  1  0.24439894  0.85490821  0.01997577  1
  H  H100  1  0.17217426  0.93210270  0.03005837  1
  H  H101  1  0.20757685  0.99189621  0.06819321  1
  H  H102  1  0.34442689  0.79899689  0.13108000  1
  H  H103  1  0.38016930  0.78135601  0.11591613  1
  H  H104  1  0.35325467  0.76687588  0.17213151  1
  H  H105  1  0.36871415  0.73046072  0.22294719  1
  H  H106  1  0.43916036  0.79866146  0.27274615  1
  H  H107  1  0.42513815  0.83405120  0.21884764  1
  H  H108  1  0.39895563  0.71695271  0.27806686  1
  H  H109  1  0.45000905  0.76375317  0.31737773  1
  H  H110  1  0.74786222  0.59069829  0.75586944  1
  H  H111  1  0.77674266  0.52744989  0.76409320  1
  H  H112  1  0.82238190  0.52993307  0.81259853  1
  H  H113  1  0.85029467  0.55452665  0.87409076  1
  H  H114  1  0.79242093  0.63360475  0.87423578  1
  H  H115  1  0.76286919  0.60857808  0.81403924  1
  H  H116  1  0.87786594  0.58757284  0.92105828  1
  H  H117  1  0.84378592  0.57044300  0.94606867  1
  H  H118  1  0.79987908  0.59061561  0.04299798  1
  H  H119  1  0.82511710  0.56414684  0.01578761  1
  H  H120  1  0.80197715  0.58780817  0.98689998  1
  H  H121  1  0.89955965  0.62774534  0.91017726  1
  H  H122  1  0.93297637  0.62724856  0.94265502  1
  H  H123  1  0.91609362  0.66262129  0.93373124  1
  H  H124  1  0.86451309  0.67686005  0.11400724  1
  H  H125  1  0.87704964  0.70325724  0.07574117  1
  H  H126  1  0.90456647  0.68012669  0.09766759  1
  H  H127  1  0.93262282  0.68419728  0.04400077  1
  H  H128  1  0.93926048  0.67389417  0.98898933  1
  H  H129  1  0.96813935  0.71135704  0.01479432  1
  H  H130  1  0.99890327  0.76053613  0.02935066  1
  H  H131  1  0.91527469  0.81103315  0.01325746  1
  H  H132  1  0.88264027  0.76127843  0.00736583  1
  H  H133  1  0.96711537  0.83267367  -0.01134199  1
  H  H134  1  0.01869468  0.81921390  0.04971762  1
  H  H135  1  0.82143496  0.65917821  0.09918996  1
  H  H136  1  0.80418810  0.62171347  0.08690239  1
  H  H137  1  0.78971144  0.64995103  0.14705961  1
  H  H138  1  0.75235642  0.63286599  0.20289268  1
  H  H139  1  0.82067017  0.56999130  0.24099672  1
  H  H140  1  0.85737801  0.58647010  0.18318581  1
  H  H141  1  0.73741122  0.60427366  0.25705593  1
  H  H142  1  0.77975090  0.55640729  0.29243525  1
  H  H143  1  0.98465176  0.08382086  0.00869560  1
  H  H144  1  0.97221458  0.14238800  0.02403806  1
  H  H145  1  0.96758219  0.14102170  0.14415765  1
  H  H146  1  0.97646422  0.08172268  0.14245716  1
  H  H147  1  0.05312260  0.08565754  0.08717500  1
  H  H148  1  0.05133784  0.14493361  0.09992021  1
  H  H149  1  0.91056341  0.04780584  0.12577712  1
  H  H150  1  0.84850821  0.04480456  0.13276517  1
  H  H151  1  0.85164560  0.03790679  0.00032616  1
  H  H152  1  0.91342451  0.04259994  0.00719941  1
  H  H153  1  0.90005678  0.96343106  0.05013983  1
  H  H154  1  0.83943754  0.96756316  0.06024127  1
  H  H155  1  0.09066299  0.96827431  0.99752404  1
  H  H156  1  0.15276225  0.97335785  0.98869652  1
  H  H157  1  0.16333105  0.03436307  0.08594262  1
  H  H158  1  0.10254801  0.03735103  0.09913488  1
  H  H159  1  0.08896542  0.95036081  0.10899623  1
  H  H160  1  0.15061959  0.95192096  0.11448465  1
  H  H161  1  0.02314966  0.92744294  0.98836682  1
  H  H162  1  0.03582605  0.86830829  0.99025595  1
  H  H163  1  0.02643291  0.86459203  0.10745561  1
  H  H164  1  0.01764861  0.92388636  0.12235558  1
  H  H165  1  0.94905354  0.92382326  0.03802403  1
  H  H166  1  0.94678467  0.86460594  0.05080689  1
  C  C167  1  0.94282582  0.01414152  0.06724817  1
  C  C168  1  0.95940346  -0.01243949  0.06950738  1
  C  C169  1  0.99278612  0.98895092  0.06513835  1
  C  C170  1  0.04283870  0.96372057  0.05977673  1
  C  C171  1  1.01003190  0.96088703  0.05987794  1
  C  C172  1  0.05959587  0.99239705  0.06509355  1
  C  C173  1  0.04379578  0.01962885  0.06276378  1
  C  C174  1  0.01029084  0.01917998  0.06618244  1
  C  C175  1  -0.00779774  0.04704038  0.07080660  1
  C  C176  1  0.95948522  0.04314270  0.06820930  1
  C  C177  1  0.55624528  0.51490064  0.63650215  1
  C  C178  1  0.52538969  0.45759986  0.49456399  1
  C  C179  1  0.57574574  0.53850053  0.44711738  1
  C  C180  1  0.51947537  0.42738227  0.67234483  1
  C  C181  1  0.44771228  0.48905851  0.49595671  1
  C  C182  1  0.47782339  0.54681673  0.63709010  1
  C  C183  1  0.42574186  0.46565281  0.68367530  1
  C  C184  1  0.48175878  0.57575469  0.45805491  1
  C  C185  1  0.25552732  0.44332097  0.37993281  1
  C  C186  1  0.26083971  0.41966154  0.34824845  1
  C  C187  1  0.24153222  0.40725988  0.31370308  1
  C  C188  1  0.25515410  0.38457503  0.28492418  1
  C  C189  1  0.23927785  0.37133714  0.25000157  1
  C  C190  1  0.20891837  0.38051094  0.24238585  1
  C  C191  1  0.19412535  0.40205853  0.27075959  1
  C  C192  1  0.21019758  0.41549388  0.30581664  1
  C  C193  1  0.21026378  0.34896130  0.17658313  1
  C  C194  1  0.18904450  0.34131272  0.13978607  1
  C  C195  1  0.16635080  0.31637695  0.14218039  1
  C  C196  1  0.14432025  0.31137327  0.10951101  1
  C  C197  1  0.14472279  0.33058931  0.07526639  1
  C  C198  1  0.16681273  0.35613517  0.07450440  1
  C  C199  1  0.18971359  0.36131544  0.10617615  1
  C  C200  1  0.21464803  0.38737494  0.10644865  1
  C  C201  1  0.16647936  0.29483006  0.17737430  1
  C  C202  1  0.12070008  0.32293658  0.04148130  1
  C  C203  1  0.11940777  0.28570369  0.11058453  1
  C  C204  1  0.06421896  0.27638588  0.11948440  1
  C  C205  1  0.07066363  0.24527043  0.11033270  1
  C  C206  1  0.04597674  0.22322308  0.10606884  1
  C  C207  1  0.01387970  0.23076978  0.11132402  1
  C  C208  1  0.00794972  0.26261713  0.12175929  1
  C  C209  1  0.03284236  0.28504003  0.12579641  1
  C  C210  1  0.99113050  0.20441673  0.10570255  1
  C  C211  1  1.00102883  0.17851916  0.08230333  1
  C  C212  1  0.16539383  0.37643220  0.03816877  1
  C  C213  1  0.18689651  0.37670679  0.96730539  1
  C  C214  1  0.17376787  0.40516414  0.96203006  1
  C  C215  1  0.18569750  0.42324529  0.93017502  1
  C  C216  1  0.21121038  0.41347048  0.90260617  1
  C  C217  1  0.22275230  0.38374532  0.90777243  1
  C  C218  1  0.20968952  0.36505210  0.93836874  1
  C  C219  1  0.22624350  0.43242854  0.87168620  1
  C  C220  1  0.24791573  0.42039024  0.84121404  1
  C  C221  1  0.57302673  0.26683599  0.82263111  1
  C  C222  1  0.55678974  0.24359929  0.84423578  1
  C  C223  1  0.57022892  0.22770242  0.87695997  1
  C  C224  1  0.55247059  0.20393447  0.89732050  1
  C  C225  1  0.56428094  0.18999891  0.93118263  1
  C  C226  1  0.59458807  0.19911330  0.94549467  1
  C  C227  1  0.61353766  0.22093196  0.92451498  1
  C  C228  1  0.60150195  0.23533913  0.89115040  1
  C  C229  1  0.58669529  0.16912966  0.00702319  1
  C  C230  1  0.60612794  0.16367320  0.04438079  1
  C  C231  1  0.62793983  0.13999758  0.03929261  1
  C  C232  1  0.64759616  0.13549038  0.07318538  1
  C  C233  1  0.64828338  0.15621423  0.10992754  1
  C  C234  1  0.62747839  0.18079854  0.11320645  1
  C  C235  1  0.60560262  0.18440582  0.08123231  1
  C  C236  1  0.58247467  0.20974490  0.08381684  1
  C  C237  1  0.63023768  0.11947175  -0.00113849  1
  C  C238  1  0.67214214  0.15135544  0.14280099  1
  C  C239  1  0.67131426  0.11101313  0.06794133  1
  C  C240  1  0.72692231  0.10864345  0.05634639  1
  C  C241  1  0.72351726  0.07645234  0.05862124  1
  C  C242  1  0.75018337  0.05955284  0.06162741  1
  C  C243  1  0.78063264  0.07459661  0.06188647  1
  C  C244  1  0.78333271  0.10701428  0.05752212  1
  C  C245  1  0.75676575  0.12394487  0.05454372  1
  C  C246  1  0.80944007  0.05878548  0.06609790  1
  C  C247  1  0.81330215  0.02792146  0.06635374  1
  C  C248  1  0.62879141  0.20234960  0.15248410  1
  C  C249  1  0.60488056  0.20716328  0.22116483  1
  C  C250  1  0.62323432  0.23475814  0.22882872  1
  C  C251  1  0.61492828  0.25535290  0.26230468  1
  C  C252  1  0.58854776  0.24887620  0.28979208  1
  C  C253  1  0.57154641  0.21977545  0.28261976  1
  C  C254  1  0.58013105  0.19892263  0.24916700  1
  C  C255  1  0.58071782  0.27174826  0.32291275  1
  C  C256  1  0.55528470  0.27059869  0.35224399  1
  C  C257  1  0.43738786  0.72992796  0.78036658  1
  C  C258  1  0.45438406  0.75130407  0.80726669  1
  C  C259  1  0.43998421  0.76828601  0.84268976  1
  C  C260  1  0.45738448  0.79142553  0.86790444  1
  C  C261  1  0.44385379  0.80643182  0.90377053  1
  C  C262  1  0.41233836  0.79880456  0.91551943  1
  C  C263  1  0.39405198  0.77723258  0.89038777  1
  C  C264  1  0.40774795  0.76175378  0.85495747  1
  C  C265  1  0.41733254  0.83156913  0.98043024  1
  C  C266  1  0.39642994  0.83888806  0.01872550  1
  C  C267  1  0.37508048  0.86274400  0.01722854  1
  C  C268  1  0.35372430  0.86810275  0.05184410  1
  C  C269  1  0.35122852  0.84837687  0.08559144  1
  C  C270  1  0.37216230  0.82402051  0.08560028  1
  C  C271  1  0.39523091  0.81921276  0.05267055  1
  C  C272  1  0.41807872  0.79365654  0.05132782  1
  C  C273  1  0.37492504  0.88268252  0.98024346  1
  C  C274  1  0.32548605  0.85399239  0.11890180  1
  C  C275  1  0.33015054  0.89250413  0.05058890  1
  C  C276  1  0.27542426  0.89485513  0.03679648  1
  C  C277  1  0.27828119  0.92685374  0.04736098  1
  C  C278  1  0.25144450  0.94399596  0.04973080  1
  C  C279  1  0.22150949  0.92961209  0.04026171  1
  C  C280  1  0.21938837  0.89715337  0.02971406  1
  C  C281  1  0.24607030  0.87988125  0.02786929  1
  C  C282  1  0.19288310  0.94638600  0.04087463  1
  C  C283  1  0.18866652  0.97612331  0.05578344  1
  C  C284  1  0.36952069  0.80390699  0.12218601  1
  C  C285  1  0.39041298  0.80146831  0.19008183  1
  C  C286  1  0.37314565  0.77315229  0.19268334  1
  C  C287  1  0.38106609  0.75316565  0.22224145  1
  C  C288  1  0.40541552  0.76124800  0.25152118  1
  C  C289  1  0.42084458  0.79123836  0.25015372  1
  C  C290  1  0.41308432  0.81121501  0.22006065  1
  C  C291  1  0.41284190  0.73895366  0.28046289  1
  C  C292  1  0.43613527  0.74194417  0.31102081  1
  C  C293  1  0.74731650  0.56520745  0.75419066  1
  C  C294  1  0.77101984  0.55111165  0.77460959  1
  C  C295  1  0.78935059  0.56649998  0.80841851  1
  C  C296  1  0.81492654  0.55232777  0.82642436  1
  C  C297  1  0.83075810  0.56615159  0.86137474  1
  C  C298  1  0.82183525  0.59500032  0.87954996  1
  C  C299  1  0.79838077  0.61059150  0.86089426  1
  C  C300  1  0.78206650  0.59645908  0.82654614  1
  C  C301  1  0.85602921  0.59275497  0.93966935  1
  C  C302  1  0.86322614  0.61296187  0.97936644  1
  C  C303  1  0.88899169  0.63494192  0.97811497  1
  C  C304  1  0.89509360  0.65453146  0.01487626  1
  C  C305  1  0.87428163  0.65522228  0.05075911  1
  C  C306  1  0.84828669  0.63346767  0.05113717  1
  C  C307  1  0.84285352  0.61187656  0.01592309  1
  C  C308  1  0.81615639  0.58760738  0.01551304  1
  C  C309  1  0.91024064  0.63816516  0.93932777  1
  C  C310  1  0.88021231  0.67988570  0.08620537  1
  C  C311  1  0.92084184  0.67926564  0.01345099  1
  C  C312  1  0.92363097  0.73369107  0.00988065  1
  C  C313  1  0.95621783  0.73315236  0.01637192  1
  C  C314  1  0.97387676  0.76091363  0.02211917  1
  C  C315  1  0.95986215  0.78896415  0.01581536  1
  C  C316  1  0.92651980  0.78891318  0.01267529  1
  C  C317  1  0.90829306  0.76145529  0.01018498  1
  C  C318  1  0.97751852  0.81836507  0.01125033  1
  C  C319  1  -0.00071359  0.83156356  0.03825581  1
  C  C320  1  0.82701897  0.63487762  0.09014034  1
  C  C321  1  0.82444659  0.61680890  0.15921412  1
  C  C322  1  0.79578037  0.63131983  0.16623922  1
  C  C323  1  0.77526754  0.62244970  0.19858127  1
  C  C324  1  0.78285429  0.59961547  0.22604989  1
  C  C325  1  0.81331663  0.58706286  0.22011143  1
  C  C326  1  0.83406202  0.59613339  0.18759045  1
  C  C327  1  0.75900292  0.59156950  0.25754670  1
  C  C328  1  0.75902371  0.56981410  0.28806215  1
  C  C329  1  -0.00038522  0.08255887  0.07669484  1
  C  C330  1  0.98691981  0.09735116  0.03907214  1
  C  C331  1  0.98545358  0.12844322  0.04405197  1
  C  C332  1  0.99916860  0.14344566  0.08450214  1
  C  C333  1  0.98064084  0.12755667  0.11934374  1
  C  C334  1  0.98181379  0.09622115  0.11612302  1
  C  C335  1  0.03207480  0.09858732  0.08336577  1
  C  C336  1  0.03158749  0.12999515  0.08788644  1
  C  C337  1  0.90719323  0.01503404  0.06623770  1
  C  C338  1  0.89444522  0.03384130  0.10500035  1
  C  C339  1  0.86283364  0.03563651  0.10581027  1
  C  C340  1  0.84720565  0.02014022  0.06638246  1
  C  C341  1  0.86473931  0.03337550  0.02819006  1
  C  C342  1  0.89643029  0.03194017  0.02920011  1
  C  C343  1  0.88858365  0.98415199  0.06288996  1
  C  C344  1  0.85691246  0.98692500  0.06378278  1
  C  C345  1  0.09499054  0.99015529  0.06502693  1
  C  C346  1  0.10711051  0.97884196  0.02090425  1
  C  C347  1  0.13874171  0.97727060  0.01803102  1
  C  C348  1  0.15484250  0.98406190  0.06030321  1
  C  C349  1  0.14558765  0.01620246  0.07658294  1
  C  C350  1  0.11400714  0.01936032  0.07925311  1
  C  C351  1  0.10579305  0.96541474  0.09222045  1
  C  C352  1  0.13746934  0.96318580  0.09135055  1
  C  C353  1  1.00132703  0.92597764  0.05480285  1
  C  C354  1  0.01801111  0.91262404  0.01442273  1
  C  C355  1  0.01952581  0.88148298  0.01119641  1
  C  C356  1  0.00045049  0.86594124  0.04599630  1
  C  C357  1  0.01558283  0.87956186  0.08626302  1
  C  C358  1  0.01492992  0.91070620  0.09180866  1
  C  C359  1  0.96825235  0.91111913  0.04944326  1
  C  C360  1  0.96801265  0.87972578  0.04728188  1
  C  C361  1  0.39626027  0.46194502  0.70841333  1
  C  C362  1  0.37147160  0.45845256  0.72893130  1
  C  C363  1  0.34436505  0.45464025  0.75139011  1
  C  C364  1  0.32005750  0.45069089  0.77353366  1
  C  C365  1  0.29427090  0.44510659  0.79756291  1
  C  C366  1  0.27085041  0.43715541  0.81979060  1
  C  C367  1  0.52701878  0.40059082  0.69449117  1
  C  C368  1  0.53272104  0.37789195  0.71308361  1
  C  C369  1  0.53894532  0.35308815  0.73343175  1
  C  C370  1  0.54431721  0.33089621  0.75394413  1
  C  C371  1  0.55109350  0.30751424  0.77646084  1
  C  C372  1  0.55878017  0.28653081  0.79807628  1
  C  C373  1  0.52928472  0.42542369  0.47981359  1
  C  C374  1  0.53312377  0.39881990  0.46563256  1
  C  C375  1  0.53744118  0.37021304  0.44828802  1
  C  C376  1  0.54101670  0.34546112  0.42710868  1
  C  C377  1  0.54488206  0.31911384  0.40372207  1
  C  C378  1  0.54967292  0.29567088  0.37993777  1
  C  C379  1  0.47354537  0.60225010  0.43577511  1
  C  C380  1  0.46713698  0.62470969  0.41713742  1
  C  C381  1  0.46013652  0.64925368  0.39674660  1
  C  C382  1  0.45436855  0.67152570  0.37662177  1
  C  C383  1  0.44815373  0.69549310  0.35494084  1
  C  C384  1  0.44220700  0.71760059  0.33435100  1
  C  C385  1  0.47375551  0.57890830  0.65216690  1
  C  C386  1  0.47009214  0.60545654  0.66672300  1
  C  C387  1  0.46604160  0.63393659  0.68468569  1
  C  C388  1  0.46234762  0.65838154  0.70654444  1
  C  C389  1  0.45722748  0.68401353  0.73094288  1
  C  C390  1  0.45081175  0.70717431  0.75446206  1
  C  C391  1  0.60528284  0.54274652  0.42272212  1
  C  C392  1  0.63014944  0.54685617  0.40260904  1
  C  C393  1  0.65735650  0.55135286  0.38060230  1
  C  C394  1  0.68199017  0.55552740  0.35923821  1
  C  C395  1  0.70851334  0.56002473  0.33619366  1
  C  C396  1  0.73264091  0.56470803  0.31371149  1
  C  C397  1  0.41445800  0.48223117  0.48603509  1
  C  C398  1  0.38689537  0.47667432  0.47596371  1
  C  C399  1  0.35714475  0.47079979  0.46310659  1
  C  C400  1  0.33101226  0.46582656  0.44677375  1
  C  C401  1  0.30339517  0.46020025  0.42791002  1
  C  C402  1  0.27934867  0.45322422  0.40696480  1
  C  C403  1  0.58940762  0.52144295  0.64757421  1
  C  C404  1  0.61680366  0.52667341  0.65871411  1
  C  C405  1  0.64629542  0.53214108  0.67292813  1
  C  C406  1  0.67210458  0.53684715  0.69031512  1
  C  C407  1  0.69917432  0.54283556  0.71044630  1
  C  C408  1  0.72354963  0.55017935  0.73066754  1
  O  O409  1  0.53792620  0.51048223  0.66872462  1
  O  O410  1  0.54880293  0.51408044  0.59798321  1
  O  O411  1  0.52922213  0.47585457  0.46480346  1
  O  O412  1  0.55133599  0.52991456  0.42582120  1
  O  O413  1  0.51930222  0.46406500  0.53343026  1
  O  O414  1  0.57812160  0.54406913  0.48679518  1
  O  O415  1  0.51444304  0.45180936  0.69615177  1
  O  O416  1  0.51843267  0.42287403  0.63241254  1
  O  O417  1  0.46552764  0.49249785  0.46299157  1
  O  O418  1  0.45561296  0.49096573  0.53430610  1
  O  O419  1  0.47411388  0.52831284  0.66658040  1
  O  O420  1  0.48408736  0.54061942  0.59820945  1
  O  O421  1  0.45030608  0.47435212  0.70456382  1
  O  O422  1  0.42314155  0.45962598  0.64408449  1
  O  O423  1  0.48693967  0.55129475  0.43440487  1
  O  O424  1  0.48306690  0.58050650  0.49793647  1
  O  O425  1  0.51662637  0.53290312  0.51623723  1
  O  O426  1  0.48536944  0.47112933  0.61477720  1
  O  O427  1  0.19279445  0.36867710  0.20786521  1
  O  O428  1  0.17779723  0.35933328  0.00022597  1
  O  O429  1  0.08854898  0.29823162  0.12193813  1
  O  O430  1  0.60760432  0.18653699  0.97862285  1
  O  O431  1  0.61087927  0.18769762  0.18643483  1
  O  O432  1  0.70137759  0.12629064  0.05559234  1
  O  O433  1  0.39777757  0.81221961  0.95062968  1
  O  O434  1  0.38534723  0.82001511  0.15840724  1
  O  O435  1  0.30090657  0.87698583  0.03501709  1
  O  O436  1  0.83572217  0.60986819  0.91423241  1
  O  O437  1  0.84348577  0.62286587  0.12491895  1
  O  O438  1  0.90558764  0.70709953  0.00341422  1
