# generated using pymatgen
data_H105C117(N3O5)2
_symmetry_space_group_name_H-M   'P 1'
_cell_length_a   51.38878986
_cell_length_b   42.94609292
_cell_length_c   81.23147526
_cell_angle_alpha   89.75411412
_cell_angle_beta   96.74780146
_cell_angle_gamma   78.63628838
_symmetry_Int_Tables_number   1
_chemical_formula_structural   H105C117(N3O5)2
_chemical_formula_sum   'H210 C234 N12 O20'
_cell_volume   174472.32906969
_cell_formula_units_Z   2
loop_
 _symmetry_equiv_pos_site_id
 _symmetry_equiv_pos_as_xyz
  1  'x, y, z'
loop_
 _atom_site_type_symbol
 _atom_site_label
 _atom_site_symmetry_multiplicity
 _atom_site_fract_x
 _atom_site_fract_y
 _atom_site_fract_z
 _atom_site_occupancy
  H  H0  1  0.05775397  0.07583859  0.67267422  1
  H  H1  1  0.07108761  0.00825726  0.71356477  1
  H  H2  1  0.06638793  0.97611272  0.66345749  1
  H  H3  1  0.04171366  0.04187830  0.61949938  1
  H  H4  1  0.04119897  0.00101178  0.61818888  1
  H  H5  1  0.05680941  0.11663509  0.72467552  1
  H  H6  1  0.02468730  0.13253394  0.71432713  1
  H  H7  1  0.05805946  0.92469202  0.72894817  1
  H  H8  1  0.08898075  0.91445927  0.72060300  1
  H  H9  1  0.07824967  0.99245206  0.64142661  1
  H  H10  1  0.03997217  0.10494271  0.68949171  1
  H  H11  1  0.04505237  0.96632872  0.71063085  1
  H  H12  1  0.13635291  0.95359759  0.45398011  1
  H  H13  1  0.16619343  0.00965187  0.41911855  1
  H  H14  1  0.14347284  0.04947249  0.46497497  1
  H  H15  1  0.09925164  0.99901651  0.49845217  1
  H  H16  1  0.09606995  0.04093772  0.49948208  1
  H  H17  1  0.13508065  0.92733728  0.40067882  1
  H  H18  1  0.11374148  0.91133008  0.41253616  1
  H  H19  1  0.17826375  0.09420438  0.40570045  1
  H  H20  1  0.17879469  0.10811763  0.42622547  1
  H  H21  1  0.14182882  0.03173536  0.48980487  1
  H  H22  1  0.14172453  0.91958485  0.43644564  1
  H  H23  1  0.14309586  0.06555498  0.41226429  1
  H  H24  1  0.96272965  0.53517575  0.84230456  1
  H  H25  1  0.01388689  0.57472112  0.87916361  1
  H  H26  1  0.06122379  0.36693206  0.78953062  1
  H  H27  1  0.12222806  0.49574975  0.85058123  1
  H  H28  1  0.06469148  0.43128381  0.74908603  1
  H  H29  1  0.16424624  0.49138619  0.80737608  1
  H  H30  1  0.09385676  0.54994491  0.79765606  1
  H  H31  1  0.07797114  0.56850934  0.81466380  1
  H  H32  1  0.08835828  0.48433239  0.82897429  1
  H  H33  1  0.09442305  0.52316010  0.83389904  1
  H  H34  1  0.03871735  0.50294608  0.82037977  1
  H  H35  1  0.02733738  0.53818698  0.80739848  1
  H  H36  1  0.08908982  0.49453216  0.78979573  1
  H  H37  1  0.96736797  0.57861583  0.88280114  1
  H  H38  1  0.05340906  0.50759399  0.78567811  1
  H  H39  1  0.04937164  0.56731044  0.86035949  1
  H  H40  1  0.06771700  0.47409862  0.76871232  1
  H  H41  1  0.09307771  0.60044982  0.79611547  1
  H  H42  1  0.09237437  0.64995925  0.78085300  1
  H  H43  1  -0.00171711  0.52683689  0.82410843  1
  H  H44  1  0.09040766  0.69045524  0.76499660  1
  H  H45  1  0.94224232  0.52726980  0.86396324  1
  H  H46  1  0.06873474  0.32978555  0.77124566  1
  H  H47  1  0.03096283  0.69294004  0.75223493  1
  H  H48  1  0.01056072  0.65180401  0.76014260  1
  H  H49  1  0.01198092  0.60072281  0.77504471  1
  H  H50  1  0.06276684  0.41066471  0.80913451  1
  H  H51  1  0.16437313  0.49351936  0.86861319  1
  H  H52  1  0.20738277  0.48504730  0.82566346  1
  H  H53  1  0.23204765  0.47342239  0.85434740  1
  H  H54  1  0.20061943  0.51751008  0.87807792  1
  H  H55  1  0.06201767  0.37962823  0.74274440  1
  H  H56  1  0.24466200  0.46879218  0.28522324  1
  H  H57  1  0.19459747  0.53267614  0.24776235  1
  H  H58  1  0.14863130  0.35192729  0.33690664  1
  H  H59  1  0.08567330  0.50935418  0.27731475  1
  H  H60  1  0.14293742  0.41387362  0.37899444  1
  H  H61  1  0.04370961  0.52612502  0.32046100  1
  H  H62  1  0.11422081  0.55114654  0.32963191  1
  H  H63  1  0.13014136  0.56127019  0.31239828  1
  H  H64  1  0.11951795  0.48252092  0.29892882  1
  H  H65  1  0.11352665  0.52424083  0.29394799  1
  H  H66  1  0.16874078  0.47625384  0.30777313  1
  H  H67  1  0.18076579  0.50634208  0.32009282  1
  H  H68  1  0.11847578  0.49401373  0.33834936  1
  H  H69  1  0.24084367  0.51161659  0.24378810  1
  H  H70  1  0.15419124  0.48937155  0.34258484  1
  H  H71  1  0.15926089  0.54383298  0.26656277  1
  H  H72  1  0.14007365  0.45989227  0.36026402  1
  H  H73  1  0.11448216  0.60114534  0.33173337  1
  H  H74  1  0.11555650  0.64986504  0.34737822  1
  H  H75  1  0.20916968  0.47888335  0.30337210  1
  H  H76  1  0.11438812  0.67691870  0.37159144  1
  H  H77  1  0.26477501  0.44962446  0.26435900  1
  H  H78  1  0.14825298  0.31889009  0.35092266  1
  H  H79  1  0.17545516  0.66645159  0.37438107  1
  H  H80  1  0.19676064  0.61149457  0.36849408  1
  H  H81  1  0.19542435  0.56209682  0.35288339  1
  H  H82  1  0.14514282  0.39814155  0.31856482  1
  H  H83  1  0.04354130  0.52701797  0.25921018  1
  H  H84  1  0.00058977  0.54053197  0.30214426  1
  H  H85  1  0.97573404  0.54263268  0.27317227  1
  H  H86  1  0.00975579  0.56979585  0.25010253  1
  H  H87  1  0.14402494  0.35592711  0.38346848  1
  H  H88  1  0.76070432  0.61367982  0.05040407  1
  H  H89  1  0.67666223  0.62788866  0.03317036  1
  H  H90  1  0.70372101  0.61569287  0.08526534  1
  H  H91  1  0.78466400  0.57699363  0.10278898  1
  H  H92  1  0.75882662  0.58041736  0.11556500  1
  H  H93  1  0.73412998  0.62759012  0.99283456  1
  H  H94  1  0.74444011  0.58634412  -0.00268748  1
  H  H95  1  0.60873375  0.59557422  0.04229817  1
  H  H96  1  0.61066571  0.61778340  0.06064834  1
  H  H97  1  0.73942712  0.63095357  0.10173184  1
  H  H98  1  0.76433232  0.60539503  0.02536162  1
  H  H99  1  0.65626923  0.58333178  0.04497098  1
  H  H100  1  0.45001596  0.40242384  0.07619433  1
  H  H101  1  0.51521263  0.44802913  0.09342784  1
  H  H102  1  0.50065248  0.42701476  0.04183084  1
  H  H103  1  0.43639493  0.37639178  0.02121221  1
  H  H104  1  0.45731726  0.38634264  0.00704809  1
  H  H105  1  0.47477955  0.41227002  0.13372410  1
  H  H106  1  0.46464836  0.37567217  0.12902021  1
  H  H107  1  0.59839862  0.43562853  0.08580659  1
  H  H108  1  0.58246814  0.46830838  0.06657766  1
  H  H109  1  0.46468594  0.42987481  0.02517105  1
  H  H110  1  0.44851126  0.39707843  0.10142791  1
  H  H111  1  0.55516694  0.42233303  0.08571760  1
  H  H112  1  0.89638096  0.52058921  0.91324083  1
  H  H113  1  0.88597983  0.62004999  0.89994224  1
  H  H114  1  0.91650028  0.60656841  0.87866588  1
  H  H115  1  0.92441378  0.50681408  0.89065777  1
  H  H116  1  0.80059723  0.65508502  0.96580626  1
  H  H117  1  0.76974138  0.65982713  0.98717448  1
  H  H118  1  0.79348418  0.55968064  -0.00189648  1
  H  H119  1  0.82169765  0.55404722  0.97533435  1
  H  H120  1  0.92940087  0.52230518  0.21648267  1
  H  H121  1  0.93172436  0.62211980  0.21459619  1
  H  H122  1  0.96899151  0.61340100  0.23728720  1
  H  H123  1  0.96475580  0.51420929  0.24023434  1
  H  H124  1  0.82504653  0.65478687  0.14487548  1
  H  H125  1  0.78959322  0.65294397  0.12172815  1
  H  H126  1  0.79878572  0.55231232  0.13079775  1
  H  H127  1  0.83491273  0.55377475  0.15331614  1
  H  H128  1  0.27239275  0.42293292  0.91165454  1
  H  H129  1  0.28346657  0.51986227  0.91316070  1
  H  H130  1  0.24639717  0.53484943  0.89061383  1
  H  H131  1  0.23741668  0.43715192  0.88793112  1
  H  H132  1  0.38733337  0.48075591  0.98131314  1
  H  H133  1  0.42290197  0.46170343  0.00410514  1
  H  H134  1  0.40392369  0.36847828  0.00099395  1
  H  H135  1  0.36827984  0.38758557  0.97821567  1
  H  H136  1  0.31112989  0.40710257  0.21806782  1
  H  H137  1  0.32158930  0.50401372  0.22272823  1
  H  H138  1  0.29098256  0.51219678  0.24414679  1
  H  H139  1  0.28235710  0.41437114  0.24055612  1
  H  H140  1  0.40542995  0.47543041  0.15760107  1
  H  H141  1  0.43708114  0.46195112  0.13680919  1
  H  H142  1  0.41969948  0.36825485  0.13376457  1
  H  H143  1  0.38936663  0.38083166  0.15520260  1
  H  H144  1  0.63289333  0.48916138  0.02673814  1
  H  H145  1  0.58054536  0.56039561  0.09926015  1
  H  H146  1  0.63350950  0.54288220  0.03701800  1
  H  H147  1  0.57805807  0.50781051  0.08680836  1
  H  H148  1  0.60933461  0.45248649  0.04078117  1
  H  H149  1  0.60310126  0.59765593  0.08574317  1
  H  H150  1  0.04136789  0.16990458  0.69791560  1
  H  H151  1  0.04435218  0.32855860  0.73557878  1
  H  H152  1  0.04507385  0.28238077  0.75517494  1
  H  H153  1  0.04257444  0.27567132  0.72432405  1
  H  H154  1  0.04365697  0.22812431  0.74259766  1
  H  H155  1  0.04146956  0.22302913  0.71137232  1
  H  H156  1  0.03988666  0.17715250  0.73007693  1
  H  H157  1  0.07505570  0.15062382  0.70342847  1
  H  H158  1  0.07938215  0.31929193  0.73703181  1
  H  H159  1  0.08032386  0.27337322  0.75680984  1
  H  H160  1  0.07779753  0.26690015  0.72582533  1
  H  H161  1  0.07888572  0.21917960  0.74411421  1
  H  H162  1  0.07668953  0.21236820  0.71335135  1
  H  H163  1  0.07499951  0.16571377  0.73201670  1
  H  H164  1  0.07279733  0.87938664  0.70106741  1
  H  H165  1  0.08962972  0.71237941  0.73651643  1
  H  H166  1  0.08578629  0.75680869  0.75644925  1
  H  H167  1  0.08378570  0.76777010  0.72574459  1
  H  H168  1  0.08087630  0.81397372  0.74462111  1
  H  H169  1  0.07853508  0.82258447  0.71351740  1
  H  H170  1  0.07761664  0.86734601  0.73338822  1
  H  H171  1  0.03886615  0.89495945  0.70292691  1
  H  H172  1  0.05448390  0.71737545  0.73288620  1
  H  H173  1  0.05068274  0.76109060  0.75421773  1
  H  H174  1  0.04866647  0.77215850  0.72368418  1
  H  H175  1  0.04578073  0.81855176  0.74260081  1
  H  H176  1  0.04332877  0.82848634  0.71182314  1
  H  H177  1  0.04242302  0.87425134  0.73112740  1
  H  H178  1  0.16617381  0.87935586  0.39981972  1
  H  H179  1  0.14415433  0.72702161  0.36211330  1
  H  H180  1  0.16501311  0.72133809  0.39171677  1
  H  H181  1  0.14968912  0.77503108  0.37750090  1
  H  H182  1  0.17081639  0.77658225  0.40702767  1
  H  H183  1  0.15315607  0.82544227  0.38900083  1
  H  H184  1  0.17042358  0.83655473  0.41939680  1
  H  H185  1  0.13289714  0.87706745  0.39283393  1
  H  H186  1  0.11194600  0.73264505  0.36844594  1
  H  H187  1  0.13325984  0.72441461  0.39862529  1
  H  H188  1  0.11809749  0.77796568  0.38443637  1
  H  H189  1  0.13917217  0.77926419  0.41407960  1
  H  H190  1  0.12128857  0.82840504  0.39559507  1
  H  H191  1  0.13661292  0.84592000  0.42302052  1
  H  H192  1  0.12570963  0.13301360  0.41211049  1
  H  H193  1  0.11437767  0.29975748  0.37111535  1
  H  H194  1  0.14107859  0.29237646  0.39835690  1
  H  H195  1  0.12195051  0.24652927  0.38508631  1
  H  H196  1  0.14327834  0.23401688  0.41443273  1
  H  H197  1  0.12309665  0.19436628  0.39722963  1
  H  H198  1  0.14636977  0.17256600  0.42544434  1
  H  H199  1  0.14378837  0.13178076  0.39491335  1
  H  H200  1  0.13992026  0.27547155  0.36183921  1
  H  H201  1  0.17110489  0.27779329  0.38979952  1
  H  H202  1  0.15304254  0.23217229  0.37786415  1
  H  H203  1  0.17452054  0.22007172  0.40718161  1
  H  H204  1  0.15339694  0.18162083  0.38883398  1
  H  H205  1  0.17625064  0.16085066  0.41651288  1
  H  H206  1  0.13524259  0.01115755  0.59612378  1
  H  H207  1  0.06078621  0.01745570  0.56451440  1
  H  H208  1  0.03679707  0.02073314  0.58915704  1
  H  H209  1  0.11116251  0.01359300  0.62082425  1
  C  C210  1  0.06257273  0.02708846  0.66630674  1
  C  C211  1  0.05993058  0.05173208  0.67754915  1
  C  C212  1  0.06246097  0.04506430  0.69458088  1
  C  C213  1  0.06739172  0.01333622  0.70027606  1
  C  C214  1  0.06887909  0.98866036  0.68895762  1
  C  C215  1  0.06673651  0.99544982  0.67202135  1
  C  C216  1  0.05920687  0.03689816  0.64827861  1
  C  C217  1  0.05479818  0.01801554  0.62053082  1
  C  C218  1  0.06082783  0.07112368  0.70700244  1
  C  C219  1  0.04609843  0.12651517  0.71268098  1
  C  C220  1  0.07280735  0.95400419  0.69436241  1
  C  C221  1  0.06706470  0.91966703  0.71732368  1
  C  C222  1  0.13963154  0.00049370  0.46124246  1
  C  C223  1  0.14228316  0.97525773  0.45026064  1
  C  C224  1  0.15248884  0.97793815  0.43518417  1
  C  C225  1  0.15783598  0.00750897  0.43066511  1
  C  C226  1  0.15377727  0.03343534  0.44116430  1
  C  C227  1  0.14600922  0.02938226  0.45681790  1
  C  C228  1  0.12811859  0.99484509  0.47698894  1
  C  C229  1  0.11074909  0.01792902  0.50169566  1
  C  C230  1  0.15711546  0.95140819  0.42296014  1
  C  C231  1  0.13486155  0.91052389  0.41087560  1
  C  C232  1  0.15907695  0.06591885  0.43700007  1
  C  C233  1  0.16557823  0.10249567  0.41549025  1
  C  C234  1  0.05299989  0.59678135  0.78569756  1
  C  C235  1  0.07577804  0.55303547  0.80401676  1
  C  C236  1  0.05159299  0.65424230  0.76870738  1
  C  C237  1  0.06322584  0.37104193  0.75556776  1
  C  C238  1  0.06551132  0.44476185  0.79016762  1
  C  C239  1  0.09272684  0.50628294  0.82385427  1
  C  C240  1  0.04338978  0.52575542  0.81670985  1
  C  C241  1  0.07012998  0.49818222  0.79527820  1
  C  C242  1  0.96448356  0.56229594  0.87277341  1
  C  C243  1  0.03021196  0.56060366  0.85658364  1
  C  C244  1  0.07468059  0.63934383  0.77923702  1
  C  C245  1  0.06374547  0.39555288  0.76773776  1
  C  C246  1  0.14068913  0.49542296  0.82781748  1
  C  C247  1  0.06608947  0.45079443  0.77333473  1
  C  C248  1  0.07527142  0.61106781  0.78780427  1
  C  C249  1  0.00176821  0.53717349  0.83620691  1
  C  C250  1  0.07191974  0.69595883  0.75645764  1
  C  C251  1  0.94314362  0.54771413  0.87181349  1
  C  C252  1  0.06429052  0.33967901  0.75858662  1
  C  C253  1  0.98545653  0.55604491  0.86211200  1
  C  C254  1  0.05063881  0.68277951  0.75882126  1
  C  C255  1  0.02876076  0.64023012  0.76779655  1
  C  C256  1  0.02948199  0.61169931  0.77606305  1
  C  C257  1  0.06354778  0.41471017  0.79595314  1
  C  C258  1  0.18922148  0.48938668  0.84854533  1
  C  C259  1  0.16455945  0.49325853  0.85520271  1
  C  C260  1  0.18869111  0.48789354  0.83110210  1
  C  C261  1  0.02569905  0.54709415  0.84118838  1
  C  C262  1  0.21412133  0.48544879  0.85947577  1
  C  C263  1  0.21583748  0.49739094  0.87496689  1
  C  C264  1  0.98177424  0.54176554  0.84654797  1
  C  C265  1  0.01029201  0.56492643  0.86695183  1
  C  C266  1  0.06281227  0.39023040  0.78488275  1
  C  C267  1  0.07060445  0.52079234  0.80988375  1
  C  C268  1  0.14059016  0.49539368  0.84501100  1
  C  C269  1  0.06475780  0.42655038  0.76228699  1
  C  C270  1  0.16466564  0.49144468  0.82082895  1
  C  C271  1  0.15451839  0.57797791  0.34215589  1
  C  C272  1  0.13232618  0.54525557  0.32332452  1
  C  C273  1  0.15566651  0.63374963  0.35995752  1
  C  C274  1  0.14453422  0.35172835  0.37023377  1
  C  C275  1  0.14229163  0.43171247  0.33820167  1
  C  C276  1  0.11520009  0.50646602  0.30403283  1
  C  C277  1  0.16447416  0.50148853  0.31101259  1
  C  C278  1  0.13748839  0.48801180  0.33296893  1
  C  C279  1  0.24337225  0.49462146  0.25417445  1
  C  C280  1  0.17815359  0.52758885  0.27048082  1
  C  C281  1  0.13281878  0.63030324  0.34912531  1
  C  C282  1  0.14477896  0.37902996  0.35963784  1
  C  C283  1  0.06723883  0.51845004  0.30003119  1
  C  C284  1  0.14182698  0.43620209  0.35519397  1
  C  C285  1  0.13217620  0.60277085  0.34026591  1
  C  C286  1  0.20589623  0.49063424  0.29116829  1
  C  C287  1  0.13324487  0.68465915  0.37069659  1
  C  C288  1  0.26405983  0.46911346  0.25552612  1
  C  C289  1  0.14530004  0.32227295  0.36393865  1
  C  C290  1  0.22248627  0.50001237  0.26498649  1
  C  C291  1  0.15578757  0.66273160  0.36905248  1
  C  C292  1  0.17852126  0.60895289  0.36078025  1
  C  C293  1  0.17788944  0.58129590  0.35208853  1
  C  C294  1  0.14464999  0.40127450  0.33185647  1
  C  C295  1  0.01881012  0.53600782  0.27928102  1
  C  C296  1  0.04340525  0.52737920  0.27262415  1
  C  C297  1  0.01927274  0.53422776  0.29672454  1
  C  C298  1  0.18231873  0.51245055  0.28607422  1
  C  C299  1  -0.00588437  0.54522991  0.26826673  1
  C  C300  1  0.99328730  0.55867528  0.25296237  1
  C  C301  1  0.22584608  0.48471098  0.28079392  1
  C  C302  1  0.19802467  0.52140380  0.26007421  1
  C  C303  1  0.14612326  0.37526201  0.34239245  1
  C  C304  1  0.13738007  0.51029102  0.31798076  1
  C  C305  1  0.06733591  0.51798566  0.28284013  1
  C  C306  1  0.14319803  0.41015226  0.36573718  1
  C  C307  1  0.04327394  0.52615477  0.30700766  1
  C  C308  1  0.73454997  0.61627855  0.06921825  1
  C  C309  1  0.73998813  0.61642471  0.05271472  1
  C  C310  1  0.71929257  0.62135007  0.03959723  1
  C  C311  1  0.69302521  0.62238063  0.04318062  1
  C  C312  1  0.68784023  0.61788459  0.05948415  1
  C  C313  1  0.70822352  0.61733148  0.07258185  1
  C  C314  1  0.75908806  0.61147391  0.08198529  1
  C  C315  1  0.77222213  0.59403019  0.11026537  1
  C  C316  1  0.72356776  0.62512068  0.02166789  1
  C  C317  1  0.74998869  0.60967726  -0.00028480  1
  C  C318  1  0.66016325  0.61515928  0.06366180  1
  C  C319  1  0.61909348  0.59528915  0.05502721  1
  C  C320  1  0.47188430  0.41639959  0.05749556  1
  C  C321  1  0.46667348  0.41337382  0.07396806  1
  C  C322  1  0.48197358  0.42512229  0.08706087  1
  C  C323  1  0.50408536  0.43736786  0.08351002  1
  C  C324  1  0.51090701  0.43770363  0.06731962  1
  C  C325  1  0.49451407  0.42784210  0.05421617  1
  C  C326  1  0.45311919  0.40503805  0.04420557  1
  C  C327  1  0.44182043  0.39662613  0.01501197  1
  C  C328  1  0.47676972  0.42556966  0.10500580  1
  C  C329  1  0.45873860  0.40170544  0.12717295  1
  C  C330  1  0.53607587  0.44812026  0.06399949  1
  C  C331  1  0.58094039  0.44617177  0.07707757  1
  C  C332  1  0.90029000  0.53926279  0.90530409  1
  C  C333  1  0.88894663  0.57144259  0.90835494  1
  C  C334  1  0.89502088  0.59532557  0.89806427  1
  C  C335  1  0.91209490  0.58769889  0.88623722  1
  C  C336  1  0.92314990  0.55554404  0.88321459  1
  C  C337  1  0.91600401  0.53161210  0.89276730  1
  C  C338  1  0.87244996  0.57956668  0.92084554  1
  C  C339  1  0.85816962  0.58646729  0.93191467  1
  C  C340  1  0.84262258  0.59395485  0.94397512  1
  C  C341  1  0.82853757  0.59978351  0.95522144  1
  C  C342  1  0.81250333  0.60392838  0.96820282  1
  C  C343  1  0.79825229  0.63392890  0.97250290  1
  C  C344  1  0.78079487  0.63645738  0.98442346  1
  C  C345  1  0.77603860  0.60923848  0.99232978  1
  C  C346  1  0.79385261  0.58039512  0.99043085  1
  C  C347  1  0.81043679  0.57734786  0.97810684  1
  C  C348  1  0.93784395  0.54231768  0.22127876  1
  C  C349  1  0.92800522  0.57278121  0.21352212  1
  C  C350  1  0.93960333  0.59838348  0.22003967  1
  C  C351  1  0.96039212  0.59347029  0.23258715  1
  C  C352  1  0.97029040  0.56305869  0.24019012  1
  C  C353  1  0.95779643  0.53782658  0.23450316  1
  C  C354  1  0.90774399  0.57895588  0.20012225  1
  C  C355  1  0.89017985  0.58677104  0.18842277  1
  C  C356  1  0.87102896  0.59575169  0.17572309  1
  C  C357  1  0.85327284  0.60326807  0.16408527  1
  C  C358  1  0.83271816  0.60459215  0.15096091  1
  C  C359  1  0.81921710  0.63228702  0.14165798  1
  C  C360  1  0.79912403  0.63113544  0.12868071  1
  C  C361  1  0.79131288  0.60219494  0.12462109  1
  C  C362  1  0.80439022  0.57490396  0.13398362  1
  C  C363  1  0.82461106  0.57564541  0.14659044  1
  C  C364  1  0.26692014  0.44735334  0.90677969  1
  C  C365  1  0.28047547  0.47035028  0.91445503  1
  C  C366  1  0.27272539  0.50205063  0.90785132  1
  C  C367  1  0.25201800  0.51037791  0.89534842  1
  C  C368  1  0.23846305  0.48746811  0.88782879  1
  C  C369  1  0.24719955  0.45546727  0.89358151  1
  C  C370  1  0.30068254  0.46289399  0.92783039  1
  C  C371  1  0.31836761  0.45730151  0.93960797  1
  C  C372  1  0.33763923  0.45122193  0.95243840  1
  C  C373  1  0.35530061  0.44507328  0.96420462  1
  C  C374  1  0.37542241  0.43552717  0.97751633  1
  C  C375  1  0.39128277  0.45591377  0.98549470  1
  C  C376  1  0.41156442  0.44495606  -0.00176093  1
  C  C377  1  0.41743607  0.41280450  0.00352275  1
  C  C378  1  0.40072483  0.39297172  -0.00356271  1
  C  C379  1  0.38054278  0.40372932  0.98379424  1
  C  C380  1  0.30695346  0.42992195  0.22406698  1
  C  C381  1  0.31853134  0.45503547  0.21853209  1
  C  C382  1  0.31238902  0.48467186  0.22642219  1
  C  C383  1  0.29514822  0.48920411  0.23834470  1
  C  C384  1  0.28368154  0.46406150  0.24374748  1
  C  C385  1  0.29083741  0.43406192  0.23655298  1
  C  C386  1  0.33520473  0.45035678  0.20593298  1
  C  C387  1  0.34954015  0.44554798  0.19476152  1
  C  C388  1  0.36511602  0.44022348  0.18259341  1
  C  C389  1  0.37941035  0.43527613  0.17140561  1
  C  C390  1  0.39603143  0.42864260  0.15880529  1
  C  C391  1  0.40917177  0.45159551  0.15264387  1
  C  C392  1  0.42710260  0.44387287  0.14114592  1
  C  C393  1  0.43355376  0.41268045  0.13549884  1
  C  C394  1  0.41761942  0.39130390  0.13954346  1
  C  C395  1  0.40005667  0.39858504  0.15125161  1
  C  C396  1  0.59916673  0.48565792  0.05965081  1
  C  C397  1  0.62344268  0.49684873  0.03773409  1
  C  C398  1  0.62388817  0.52707122  0.04362688  1
  C  C399  1  0.61239158  0.53755670  0.05819570  1
  C  C400  1  0.61031299  0.47583281  0.04572412  1
  C  C401  1  0.61178998  0.56862587  0.06493202  1
  C  C402  1  0.58943918  0.55358364  0.08794190  1
  C  C403  1  0.58808686  0.52448943  0.08115354  1
  C  C404  1  0.60004845  0.51542941  0.06646753  1
  C  C405  1  0.60176584  0.57505267  0.07998883  1
  C  C406  1  0.05542837  0.15680066  0.70808346  1
  C  C407  1  0.06241688  0.31831005  0.74421890  1
  C  C408  1  0.06221269  0.28378327  0.74838022  1
  C  C409  1  0.06076874  0.26489522  0.73262256  1
  C  C410  1  0.06072426  0.23003386  0.73581646  1
  C  C411  1  0.05916017  0.21151730  0.71988254  1
  C  C412  1  0.05741275  0.17712973  0.72338150  1
  C  C413  1  0.05897430  0.88943644  0.70994202  1
  C  C414  1  0.07119520  0.71915151  0.74250213  1
  C  C415  1  0.06842832  0.75404742  0.74761050  1
  C  C416  1  0.06609603  0.77546178  0.73234334  1
  C  C417  1  0.06342666  0.81058307  0.73599933  1
  C  C418  1  0.06117015  0.83111652  0.72027811  1
  C  C419  1  0.05994220  0.86604622  0.72442196  1
  C  C420  1  0.14692956  0.87790673  0.40413637  1
  C  C421  1  0.13274413  0.71984939  0.37176758  1
  C  C422  1  0.14365421  0.73201772  0.38866441  1
  C  C423  1  0.13963104  0.76828748  0.38787863  1
  C  C424  1  0.14919026  0.78514142  0.40354270  1
  C  C425  1  0.14292203  0.82131971  0.39980339  1
  C  C426  1  0.14989860  0.84499992  0.41328587  1
  C  C427  1  0.14574383  0.13308482  0.40857564  1
  C  C428  1  0.13639601  0.29407520  0.37112596  1
  C  C429  1  0.14939883  0.27863107  0.38812192  1
  C  C430  1  0.14374266  0.24472556  0.38819948  1
  C  C431  1  0.15273263  0.22311737  0.40379492  1
  C  C432  1  0.14503625  0.19069322  0.40021546  1
  C  C433  1  0.15428576  0.16452979  0.41379900  1
  C  C434  1  0.11368202  0.01248489  0.59471036  1
  C  C435  1  0.10016870  0.01317715  0.57844684  1
  C  C436  1  0.07189909  0.01616570  0.57688502  1
  C  C437  1  0.05850356  0.01764499  0.59066954  1
  C  C438  1  0.12190471  0.01498322  0.51893023  1
  C  C439  1  0.10011677  0.01359850  0.60853576  1
  C  C440  1  0.11324322  0.01185276  0.56416800  1
  C  C441  1  0.12065642  0.01158973  0.55033272  1
  C  C442  1  0.12366606  0.01284971  0.53412091  1
  C  C443  1  0.07227405  0.01542812  0.60672183  1
  N  N444  1  0.06801800  0.01432263  0.63730828  1
  N  N445  1  0.05084112  0.10129991  0.70085215  1
  N  N446  1  0.05925415  0.94849378  0.70713231  1
  N  N447  1  0.12996157  0.01542980  0.48964609  1
  N  N448  1  0.14834878  0.92350295  0.42549265  1
  N  N449  1  0.15397111  0.07645124  0.42084619  1
  N  N450  1  0.75688496  0.61835711  0.09847510  1
  N  N451  1  0.74897882  0.61686718  0.01712383  1
  N  N452  1  0.64712744  0.59548440  0.05410266  1
  N  N453  1  0.45293871  0.41473423  0.02808092  1
  N  N454  1  0.45762141  0.41037115  0.10969932  1
  N  N455  1  0.55792390  0.43759803  0.07672136  1
  O  O456  1  0.04883794  0.06440638  0.64349752  1
  O  O457  1  0.06870994  0.06550552  0.72187432  1
  O  O458  1  0.08639330  0.93241030  0.68726455  1
  O  O459  1  0.11666301  0.97233318  0.47832786  1
  O  O460  1  0.16719009  0.95538105  0.41020394  1
  O  O461  1  0.16751963  0.08249821  0.44799442  1
  O  O462  1  0.05276576  0.56796991  0.79263970  1
  O  O463  1  0.11792149  0.49851558  0.81702935  1
  O  O464  1  0.04535214  0.54515082  0.83114000  1
  O  O465  1  0.06658238  0.46775738  0.80153044  1
  O  O466  1  0.15531199  0.54968171  0.33454700  1
  O  O467  1  0.08998576  0.51068112  0.31084321  1
  O  O468  1  0.16282013  0.52088276  0.29614680  1
  O  O469  1  0.14063122  0.45588883  0.32700808  1
  O  O470  1  0.78133118  0.59967484  0.07794233  1
  O  O471  1  0.70442875  0.63529924  0.01107633  1
  O  O472  1  0.65053191  0.62895533  0.07549119  1
  O  O473  1  0.43798093  0.38761111  0.04777640  1
  O  O474  1  0.48969349  0.43947169  0.11537372  1
  O  O475  1  0.53939531  0.46207318  0.05154639  1
