# generated using pymatgen
data_H64C78N5O2
_symmetry_space_group_name_H-M   'P 1'
_cell_length_a   62.77672862
_cell_length_b   33.25699881
_cell_length_c   62.58857452
_cell_angle_alpha   89.85743099
_cell_angle_beta   89.82688079
_cell_angle_gamma   98.74825472
_symmetry_Int_Tables_number   1
_chemical_formula_structural   H64C78N5O2
_chemical_formula_sum   'H192 C234 N15 O6'
_cell_volume   129148.90901823
_cell_formula_units_Z   3
loop_
 _symmetry_equiv_pos_site_id
 _symmetry_equiv_pos_as_xyz
  1  'x, y, z'
loop_
 _atom_site_type_symbol
 _atom_site_label
 _atom_site_symmetry_multiplicity
 _atom_site_fract_x
 _atom_site_fract_y
 _atom_site_fract_z
 _atom_site_occupancy
  H  H0  1  0.98963987  0.57404344  0.71973375  1
  H  H1  1  0.99047718  0.64012110  0.70221647  1
  H  H2  1  0.05145602  0.50031957  0.69980425  1
  H  H3  1  0.08258437  0.52448623  0.72209121  1
  H  H4  1  0.96469159  0.51800448  0.70000811  1
  H  H5  1  0.93336570  0.49034544  0.72130315  1
  H  H6  1  0.02901814  0.44194281  0.71520893  1
  H  H7  1  0.02619532  0.37862940  0.69518979  1
  H  H8  1  0.00576024  0.46449825  0.74361274  1
  H  H9  1  0.97530486  0.44790494  0.76796059  1
  H  H10  1  0.99122192  0.49186368  0.66694254  1
  H  H11  1  0.99072141  0.42995028  0.64596354  1
  H  H12  1  0.00995716  0.54905336  0.74511954  1
  H  H13  1  0.04161563  0.58343979  0.76348700  1
  H  H14  1  0.02698482  0.53582663  0.66751842  1
  H  H15  1  0.02342188  0.59868888  0.64828084  1
  H  H16  1  0.98930383  0.48607937  0.34024294  1
  H  H17  1  0.98829463  0.42485467  0.36197730  1
  H  H18  1  0.00381258  0.45596326  0.26399554  1
  H  H19  1  0.97293764  0.43687581  0.24063995  1
  H  H20  1  0.02440704  0.53152878  0.34019184  1
  H  H21  1  0.02009394  0.59559441  0.35760634  1
  H  H22  1  0.00943239  0.54376928  0.26240703  1
  H  H23  1  0.04167464  0.57433684  0.24300455  1
  H  H24  1  0.98696846  0.56367173  0.28664634  1
  H  H25  1  0.98776873  0.63144638  0.30182369  1
  H  H26  1  0.04956775  0.49056240  0.30726445  1
  H  H27  1  0.08123466  0.51462823  0.28521951  1
  H  H28  1  0.96337556  0.51243532  0.30708402  1
  H  H29  1  0.93189980  0.48674941  0.28556514  1
  H  H30  1  0.02685659  0.43357200  0.29263858  1
  H  H31  1  0.02370584  0.37093578  0.31346105  1
  H  H32  1  0.79438875  0.31326170  0.13650711  1
  H  H33  1  0.80499269  0.22694333  0.12863525  1
  H  H34  1  0.78120497  0.19020711  0.10042952  1
  H  H35  1  0.75739076  0.19100145  0.06954211  1
  H  H36  1  0.75730829  0.31952730  0.07840410  1
  H  H37  1  0.78214719  0.31992071  0.10833297  1
  H  H38  1  0.72640515  0.20286653  0.04661564  1
  H  H39  1  0.75171659  0.21680415  0.03404756  1
  H  H40  1  0.76962470  0.27018031  0.98726521  1
  H  H41  1  0.76276103  0.22297765  1.00030380  1
  H  H42  1  0.77034282  0.26770327  0.01547981  1
  H  H43  1  0.70065630  0.23026437  0.05572679  1
  H  H44  1  0.68323456  0.20199103  0.03714206  1
  H  H45  1  0.67804694  0.25002124  0.04615385  1
  H  H46  1  0.70489217  0.32027316  0.95823215  1
  H  H47  1  0.68757245  0.33385508  0.97842050  1
  H  H48  1  0.68111266  0.28729923  0.96464731  1
  H  H49  1  0.66257815  0.26950655  0.99334265  1
  H  H50  1  0.66256648  0.26150155  0.02140289  1
  H  H51  1  0.63197737  0.27067070  0.00755944  1
  H  H52  1  0.59654705  0.29192869  0.00490201  1
  H  H53  1  0.62517850  0.41685121  0.01492647  1
  H  H54  1  0.66145137  0.39545471  0.01656446  1
  H  H55  1  0.58649608  0.40236241  0.01076368  1
  H  H56  1  0.56436430  0.31335584  0.00243966  1
  H  H57  1  0.73423345  0.32542802  0.96056018  1
  H  H58  1  0.75782541  0.30969669  0.97062042  1
  H  H59  1  0.75911783  0.34351635  0.93963233  1
  H  H60  1  0.78529848  0.35841840  0.91055578  1
  H  H61  1  0.77373357  0.23223666  0.89137489  1
  H  H62  1  0.74771886  0.21725694  0.92109624  1
  H  H63  1  0.80292589  0.34117983  0.88033247  1
  H  H64  1  0.80376052  0.25023021  0.87085097  1
  H  H65  1  0.22018172  0.74899174  0.86807275  1
  H  H66  1  0.20067027  0.66199499  0.88222151  1
  H  H67  1  0.21700049  0.62930639  0.90790747  1
  H  H68  1  0.24087096  0.62768828  0.93868089  1
  H  H69  1  0.26354965  0.75608517  0.93070251  1
  H  H70  1  0.23954746  0.75790411  0.89956627  1
  H  H71  1  0.26769618  0.63187173  0.95854801  1
  H  H72  1  0.24577540  0.64848910  0.97198821  1
  H  H73  1  0.24122682  0.70920614  0.01825994  1
  H  H74  1  0.23498271  0.66181444  0.00546054  1
  H  H75  1  0.24162233  0.70670853  0.99004927  1
  H  H76  1  0.29704330  0.63427552  0.95431000  1
  H  H77  1  0.30725862  0.60244264  0.97315460  1
  H  H78  1  0.32321309  0.64794808  0.96424192  1
  H  H79  1  0.31377771  0.72092468  0.05203437  1
  H  H80  1  0.33451542  0.72621696  0.03229911  1
  H  H81  1  0.32742848  0.67978426  0.04609850  1
  H  H82  1  0.34052703  0.65312699  0.01948989  1
  H  H83  1  0.33718733  0.63871792  0.99231980  1
  H  H84  1  0.36834164  0.63510137  0.00055464  1
  H  H85  1  0.40747838  0.63872128  0.00224763  1
  H  H86  1  0.41534286  0.76898477  0.99315400  1
  H  H87  1  0.37540624  0.76524462  0.99142238  1
  H  H88  1  0.44728231  0.73738844  0.99793544  1
  H  H89  1  0.44307445  0.64258930  0.00232978  1
  H  H90  1  0.28868786  0.75062393  0.04412693  1
  H  H91  1  0.26162024  0.73896905  0.03572423  1
  H  H92  1  0.26339587  0.77643953  0.06691424  1
  H  H93  1  0.24007216  0.79360235  0.09591905  1
  H  H94  1  0.22782405  0.66662826  0.11463113  1
  H  H95  1  0.25386087  0.65127658  0.08765924  1
  H  H96  1  0.21194633  0.76907870  0.12569122  1
  H  H97  1  0.22293673  0.68854254  0.14339282  1
  H  H98  1  0.87877706  0.43661247  0.76675156  1
  H  H99  1  0.90799571  0.47303815  0.74468350  1
  H  H100  1  0.95213347  0.40037213  0.77295296  1
  H  H101  1  0.92401442  0.37183331  0.79838429  1
  H  H102  1  0.82751907  0.36810475  0.81047089  1
  H  H103  1  0.80037736  0.33514421  0.83600963  1
  H  H104  1  0.84758307  0.26698167  0.86215557  1
  H  H105  1  0.87513502  0.30362179  0.83818091  1
  H  H106  1  0.92168656  0.35339674  0.21649235  1
  H  H107  1  0.94862594  0.38628981  0.24195123  1
  H  H108  1  0.90809128  0.47683285  0.25555706  1
  H  H109  1  0.87998334  0.44034206  0.23239803  1
  H  H110  1  0.86997275  0.28306577  0.17339959  1
  H  H111  1  0.84184922  0.25343998  0.14834870  1
  H  H112  1  0.80309296  0.34406068  0.16700035  1
  H  H113  1  0.83176426  0.37444294  0.19134958  1
  H  H114  1  0.08983047  0.61792133  0.80762378  1
  H  H115  1  0.06241030  0.57310792  0.78708415  1
  H  H116  1  0.10861663  0.56694346  0.73650158  1
  H  H117  1  0.13712894  0.60251953  0.75959873  1
  H  H118  1  0.13733443  0.68687568  0.84827539  1
  H  H119  1  0.16509000  0.71621299  0.87392797  1
  H  H120  1  0.21431717  0.70964757  0.82620803  1
  H  H121  1  0.18654364  0.67684380  0.80147058  1
  H  H122  1  0.09719841  0.66476185  0.23025045  1
  H  H123  1  0.06933332  0.62516929  0.25326472  1
  H  H124  1  0.09950897  0.51826475  0.24440442  1
  H  H125  1  0.12608496  0.55694970  0.21997749  1
  H  H126  1  0.15232507  0.73550231  0.18275558  1
  H  H127  1  0.18141568  0.75966953  0.15724716  1
  H  H128  1  0.20030372  0.64009182  0.15745492  1
  H  H129  1  0.17070900  0.61609060  0.18236664  1
  H  H130  1  0.50506633  0.60457880  0.98549784  1
  H  H131  1  0.52857926  0.55486980  0.97987006  1
  H  H132  1  0.53934932  0.48791259  0.98565545  1
  H  H133  1  0.48511389  0.45631507  0.02835406  1
  H  H134  1  0.47432178  0.52324022  0.02253826  1
  H  H135  1  0.50856457  0.40665483  0.02277242  1
  H  H136  1  0.46923983  0.59119881  0.02011453  1
  H  H137  1  0.54521694  0.41890123  0.98903827  1
  H  H138  1  0.02416033  0.10619546  0.62950832  1
  H  H139  1  0.99165708  0.14134527  0.63147072  1
  H  H140  1  0.02935013  0.17414302  0.64292071  1
  H  H141  1  0.98376076  0.34253040  0.67305739  1
  H  H142  1  0.01938616  0.31635230  0.67196975  1
  H  H143  1  0.98416085  0.27602247  0.65952639  1
  H  H144  1  0.98788247  0.36110244  0.64678999  1
  H  H145  1  0.02430036  0.33642245  0.64601070  1
  H  H146  1  0.98883623  0.29655850  0.63353571  1
  H  H147  1  0.03044126  0.12735031  0.60378190  1
  H  H148  1  0.99684252  0.16089460  0.60551017  1
  H  H149  1  0.03391789  0.19501172  0.61701199  1
  H  H150  1  0.03137734  0.90634756  0.60586709  1
  H  H151  1  0.99727169  0.85501492  0.60523397  1
  H  H152  1  0.03303470  0.83713450  0.61693546  1
  H  H153  1  0.99027083  0.64015188  0.64316084  1
  H  H154  1  0.02253569  0.69216853  0.64488918  1
  H  H155  1  0.98634222  0.70954748  0.63168817  1
  H  H156  1  0.97953205  0.65846081  0.66673087  1
  H  H157  1  0.01603143  0.70725800  0.67078816  1
  H  H158  1  0.98142683  0.72703220  0.65763624  1
  H  H159  1  0.02469748  0.92167252  0.63181387  1
  H  H160  1  0.99145372  0.86853390  0.63150216  1
  H  H161  1  0.02858132  0.85352274  0.64321246  1
  H  H162  1  0.02779902  0.91162644  0.38422053  1
  H  H163  1  0.99619959  0.86621975  0.36941648  1
  H  H164  1  0.03253259  0.84156360  0.37589272  1
  H  H165  1  0.98227157  0.66388958  0.33142155  1
  H  H166  1  0.02155122  0.69600271  0.34347204  1
  H  H167  1  0.98875571  0.72978244  0.34012323  1
  H  H168  1  0.98051313  0.63720071  0.35579620  1
  H  H169  1  0.01341811  0.67720197  0.36908637  1
  H  H170  1  0.97890479  0.70951645  0.36503076  1
  H  H171  1  0.02218180  0.89044608  0.41002165  1
  H  H172  1  0.98782862  0.84895724  0.39515871  1
  H  H173  1  0.02273312  0.82199613  0.40093216  1
  H  H174  1  0.03102186  0.11681950  0.39859305  1
  H  H175  1  0.99959492  0.15451172  0.40449509  1
  H  H176  1  0.03382116  0.18440284  0.38499825  1
  H  H177  1  0.99046450  0.35842955  0.36548023  1
  H  H178  1  0.02468466  0.32792996  0.35855195  1
  H  H179  1  0.99156544  0.29412506  0.37869621  1
  H  H180  1  0.98017589  0.33931116  0.34080646  1
  H  H181  1  0.01348600  0.30727281  0.33440599  1
  H  H182  1  0.98044358  0.27325457  0.35448480  1
  H  H183  1  0.01910833  0.09631511  0.37455217  1
  H  H184  1  0.98809368  0.13528537  0.38030572  1
  H  H185  1  0.02288669  0.16378817  0.36066973  1
  H  H186  1  0.00667299  0.96336450  0.48833448  1
  H  H187  1  0.98055460  0.97521183  0.49239090  1
  H  H188  1  0.02019395  0.03466534  0.49855744  1
  H  H189  1  1.00046420  0.96254276  0.51965610  1
  H  H190  1  0.02593012  0.99097225  0.52422116  1
  H  H191  1  -0.00464454  0.03919048  0.50626798  1
  C  C192  1  0.99981967  0.00293142  0.54445425  1
  C  C193  1  -0.00258769  0.96882541  0.57591781  1
  C  C194  1  0.00288375  0.00892013  0.60824913  1
  C  C195  1  0.99990269  0.04253314  0.57381389  1
  C  C196  1  1.00567047  0.07742073  0.60489456  1
  C  C197  1  0.00664144  0.94206093  0.60713220  1
  C  C198  1  0.99596743  -0.00232019  0.46357189  1
  C  C199  1  0.99903300  0.03619799  0.43360435  1
  C  C200  1  1.00076048  1.00055683  0.39961754  1
  C  C201  1  0.99411407  0.96228616  0.43246600  1
  C  C202  1  1.00280724  0.93319402  0.40178871  1
  C  C203  1  0.00512839  0.06947636  0.40194639  1
  C  C204  1  0.99746968  0.57905864  0.70418174  1
  C  C205  1  0.99714135  0.61600038  0.69390609  1
  C  C206  1  0.04894872  0.51638359  0.71456669  1
  C  C207  1  0.06679467  0.53130312  0.72687623  1
  C  C208  1  0.96720401  0.50098607  0.71448105  1
  C  C209  1  0.94924679  0.48513430  0.72666576  1
  C  C210  1  0.02020417  0.43963318  0.70015334  1
  C  C211  1  0.01826924  0.40321347  0.68891706  1
  C  C212  1  0.99006480  0.47174894  0.73892479  1
  C  C213  1  0.97237421  0.45847476  0.75188223  1
  C  C214  1  0.99951995  0.46779431  0.67314897  1
  C  C215  1  0.99840269  0.43187447  0.66163298  1
  C  C216  1  0.02584294  0.54420271  0.73956878  1
  C  C217  1  0.04373777  0.56140764  0.75108522  1
  C  C218  1  0.01751235  0.55718847  0.67473640  1
  C  C219  1  0.01561449  0.59306447  0.66384700  1
  C  C220  1  0.00640179  0.54756459  0.69413375  1
  C  C221  1  0.00345571  0.62130071  0.67246817  1
  C  C222  1  0.02794719  0.52064515  0.72123449  1
  C  C223  1  0.06454026  0.55409432  0.74549243  1
  C  C224  1  0.98816933  0.49551080  0.72062317  1
  C  C225  1  0.95132826  0.46196513  0.74525821  1
  C  C226  1  0.01073869  0.47286943  0.69257845  1
  C  C227  1  0.00560689  0.39750575  0.67033273  1
  C  C228  1  0.00833742  0.50901848  0.70690352  1
  C  C229  1  0.99755538  0.46166086  0.33440908  1
  C  C230  1  0.99631258  0.42626493  0.34643691  1
  C  C231  1  0.98821939  0.46376126  0.26874012  1
  C  C232  1  0.97036842  0.45003740  0.25619577  1
  C  C233  1  0.01498231  0.55202862  0.33214436  1
  C  C234  1  0.01265593  0.58869206  0.34201845  1
  C  C235  1  0.02510969  0.53832622  0.26816988  1
  C  C236  1  0.04335186  0.55559637  0.25706436  1
  C  C237  1  0.99494797  0.57049218  0.30192304  1
  C  C238  1  0.99445155  0.60835213  0.31097855  1
  C  C239  1  0.04741186  0.50718383  0.29256853  1
  C  C240  1  0.06552948  0.52153828  0.28025810  1
  C  C241  1  0.96573844  0.49532217  0.29264250  1
  C  C242  1  0.94770356  0.48049714  0.28041380  1
  C  C243  1  0.01806478  0.43202692  0.30775763  1
  C  C244  1  0.01602578  0.39600252  0.31952264  1
  C  C245  1  0.00892909  0.46588067  0.31498260  1
  C  C246  1  0.00390557  0.39163764  0.33854479  1
  C  C247  1  0.98659461  0.48853404  0.28665940  1
  C  C248  1  0.94952864  0.45612211  0.26231331  1
  C  C249  1  0.00435100  0.54056110  0.31274113  1
  C  C250  1  0.00088611  0.61637630  0.33210512  1
  C  C251  1  0.02667816  0.51352744  0.28621746  1
  C  C252  1  0.06390654  0.54755257  0.26282721  1
  C  C253  1  0.00674612  0.50187328  0.30039677  1
  C  C254  1  0.80418316  0.28893182  0.13773778  1
  C  C255  1  0.79917721  0.25549002  0.12503097  1
  C  C256  1  0.78423629  0.25491435  0.10716476  1
  C  C257  1  0.77655624  0.21910651  0.09545249  1
  C  C258  1  0.76292538  0.21940768  0.07791713  1
  C  C259  1  0.75625676  0.25590174  0.07145488  1
  C  C260  1  0.76288748  0.29133197  0.08315996  1
  C  C261  1  0.77679361  0.29106933  0.10039794  1
  C  C262  1  0.73700079  0.22847880  0.03905419  1
  C  C263  1  0.72599594  0.24694134  0.02083826  1
  C  C264  1  0.70410235  0.25217251  0.02298947  1
  C  C265  1  0.69443304  0.27295990  0.00681877  1
  C  C266  1  0.70626504  0.28759661  0.98831806  1
  C  C267  1  0.72810197  0.28232184  0.98643640  1
  C  C268  1  0.73808583  0.26183142  0.00255635  1
  C  C269  1  0.76126080  0.25554240  0.00125923  1
  C  C270  1  0.69094031  0.23298735  0.04142996  1
  C  C271  1  0.69457051  0.30830729  0.97160424  1
  C  C272  1  0.67118123  0.27908128  0.00828282  1
  C  C273  1  0.64918945  0.33197912  0.01142489  1
  C  C274  1  0.63084334  0.30297322  0.00861188  1
  C  C275  1  0.61056214  0.31514787  0.00744775  1
  C  C276  1  0.60815882  0.35624872  0.00950760  1
  C  C277  1  0.62681865  0.38492156  0.01304854  1
  C  C278  1  0.64713907  0.37300680  0.01393262  1
  C  C279  1  0.58681157  0.36997546  0.00822881  1
  C  C280  1  0.56860738  0.34597746  0.00401828  1
  C  C281  1  0.74072720  0.29909396  0.96705708  1
  C  C282  1  0.75294485  0.27861282  0.93322286  1
  C  C283  1  0.76280480  0.31866932  0.92963982  1
  C  C284  1  0.77716095  0.32730887  0.91277867  1
  C  C285  1  0.78200463  0.29679391  0.89867300  1
  C  C286  1  0.77093480  0.25676445  0.90204536  1
  C  C287  1  0.75634772  0.24802578  0.91886612  1
  C  C288  1  0.79738642  0.30847089  0.88146297  1
  C  C289  1  0.80656515  0.28317436  0.86846926  1
  C  C290  1  0.20873312  0.72086304  0.86924186  1
  C  C291  1  0.21071538  0.69162958  0.88393779  1
  C  C292  1  0.22594101  0.69357251  0.90146637  1
  C  C293  1  0.22699442  0.65732719  0.91300258  1
  C  C294  1  0.24033141  0.65648891  0.93051409  1
  C  C295  1  0.25300237  0.69243033  0.93721130  1
  C  C296  1  0.25310556  0.72853539  0.92563273  1
  C  C297  1  0.23964138  0.72927653  0.90805158  1
  C  C298  1  0.26300970  0.65683521  0.96806489  1
  C  C299  1  0.27687990  0.66566518  0.98746675  1
  C  C300  1  0.29817522  0.65701319  0.98698961  1
  C  C301  1  0.31164315  0.66921964  0.00454705  1
  C  C302  1  0.30456540  0.69141223  0.02176988  1
  C  C303  1  0.28323745  0.70028789  0.02183692  1
  C  C304  1  0.26902568  0.68591559  0.00510532  1
  C  C305  1  0.24569731  0.69135051  0.00477366  1
  C  C306  1  0.30673928  0.63448081  0.96882461  1
  C  C307  1  0.32068907  0.70540725  0.03891005  1
  C  C308  1  0.33467229  0.66233796  0.00389867  1
  C  C309  1  0.36947878  0.70045374  0.99702810  1
  C  C310  1  0.37844193  0.66473580  0.99940416  1
  C  C311  1  0.40074137  0.66680955  0.00007797  1
  C  C312  1  0.41432577  0.70430031  0.99821878  1
  C  C313  1  0.40493885  0.73980966  0.99484376  1
  C  C314  1  0.38266682  0.73786443  0.99400714  1
  C  C315  1  0.43798853  0.70698811  0.99962100  1
  C  C316  1  0.44778577  0.67524785  0.00341688  1
  C  C317  1  0.27595854  0.72530714  0.03979429  1
  C  C318  1  0.25889419  0.71188734  0.07451612  1
  C  C319  1  0.25542628  0.75222694  0.07726040  1
  C  C320  1  0.24231658  0.76194137  0.09387073  1
  C  C321  1  0.23206475  0.73183033  0.10821386  1
  C  C322  1  0.23635014  0.69156226  0.10517078  1
  C  C323  1  0.25028739  0.68222020  0.08925975  1
  C  C324  1  0.21737475  0.73947031  0.12524159  1
  C  C325  1  0.21195543  0.71055217  0.14070142  1
  C  C326  1  0.89917136  0.40145827  0.78431006  1
  C  C327  1  0.89518376  0.43014628  0.76863345  1
  C  C328  1  0.91166260  0.45019464  0.75602318  1
  C  C329  1  0.93299190  0.44195500  0.75810180  1
  C  C330  1  0.93676706  0.41171352  0.77289567  1
  C  C331  1  0.92056962  0.39349327  0.78623427  1
  C  C332  1  0.88289192  0.38046834  0.79758764  1
  C  C333  1  0.86916619  0.36157249  0.80929322  1
  C  C334  1  0.85359981  0.33986969  0.82301824  1
  C  C335  1  0.83191868  0.34701637  0.82245875  1
  C  C336  1  0.81682759  0.32852095  0.83680317  1
  C  C337  1  0.82203302  0.29960736  0.85189061  1
  C  C338  1  0.84317220  0.28967545  0.85109648  1
  C  C339  1  0.85862949  0.31006093  0.83765085  1
  C  C340  1  0.89869478  0.39397610  0.22255113  1
  C  C341  1  0.91879357  0.38043916  0.22518363  1
  C  C342  1  0.93440175  0.40021078  0.23856690  1
  C  C343  1  0.93131535  0.43607022  0.24933238  1
  C  C344  1  0.91112491  0.44940577  0.24734609  1
  C  C345  1  0.89530169  0.42904364  0.23417812  1
  C  C346  1  0.88318162  0.37191296  0.20889974  1
  C  C347  1  0.86972875  0.35283817  0.19708369  1
  C  C348  1  0.85364026  0.33262482  0.18341536  1
  C  C349  1  0.85548436  0.29708764  0.17145220  1
  C  C350  1  0.83958139  0.28058409  0.15725966  1
  C  C351  1  0.82074906  0.29871421  0.15410855  1
  C  C352  1  0.81812310  0.33158874  0.16776427  1
  C  C353  1  0.83397631  0.34822897  0.18162004  1
  C  C354  1  0.11540144  0.61433214  0.78489678  1
  C  C355  1  0.09379086  0.60623577  0.79207905  1
  C  C356  1  0.07803821  0.58386109  0.77988127  1
  C  C357  1  0.08265579  0.57200499  0.75894487  1
  C  C358  1  0.10438206  0.57760269  0.75215141  1
  C  C359  1  0.12038972  0.59797699  0.76494550  1
  C  C360  1  0.13119046  0.63684531  0.79791967  1
  C  C361  1  0.14466980  0.65613602  0.80958341  1
  C  C362  1  0.16007852  0.67714213  0.82349713  1
  C  C363  1  0.15434280  0.69062055  0.84389652  1
  C  C364  1  0.16992898  0.70679572  0.85820247  1
  C  C365  1  0.19211140  0.71232664  0.85267232  1
  C  C366  1  0.19751083  0.70401164  0.83131153  1
  C  C367  1  0.18205544  0.68589010  0.81738342  1
  C  C368  1  0.11361255  0.61389669  0.22337951  1
  C  C369  1  0.09728479  0.63244195  0.23310983  1
  C  C370  1  0.08168935  0.61026861  0.24572210  1
  C  C371  1  0.08221524  0.56886355  0.25008155  1
  C  C372  1  0.09897303  0.55037062  0.24139035  1
  C  C373  1  0.11390791  0.57207890  0.22770387  1
  C  C374  1  0.12875468  0.63775497  0.20995167  1
  C  C375  1  0.14221721  0.65707203  0.19812525  1
  C  C376  1  0.15892219  0.67368522  0.18402115  1
  C  C377  1  0.16265553  0.71451396  0.17669754  1
  C  C378  1  0.17916013  0.72796539  0.16236307  1
  C  C379  1  0.19320267  0.70139070  0.15482130  1
  C  C380  1  0.18964607  0.66097784  0.16278406  1
  C  C381  1  0.17313811  0.64748662  0.17666799  1
  C  C382  1  0.47760954  0.59773554  0.00502991  1
  C  C383  1  0.49473213  0.58506267  0.99663259  1
  C  C384  1  0.50068786  0.54442487  0.00066185  1
  C  C385  1  0.51905370  0.53320803  0.99052661  1
  C  C386  1  0.52509952  0.49526817  0.99388106  1
  C  C387  1  0.51306560  0.46681942  0.00763480  1
  C  C388  1  0.49465295  0.47798137  0.01770986  1
  C  C389  1  0.48861051  0.51592112  0.01436068  1
  C  C390  1  0.51907717  0.42625415  0.01181061  1
  C  C391  1  0.53652490  0.41376746  0.00403343  1
  C  C392  1  0.01712499  0.11598506  0.61479591  1
  C  C393  1  0.00469219  0.15089712  0.61985754  1
  C  C394  1  0.02096607  0.18563840  0.62902955  1
  C  C395  1  0.01178068  0.22078578  0.63553733  1
  C  C396  1  -0.00351952  0.35589500  0.66166099  1
  C  C397  1  0.01136118  0.32447899  0.65731853  1
  C  C398  1  -0.00273909  0.28696900  0.64790021  1
  C  C399  1  0.00846377  0.25389315  0.64223766  1
  C  C400  1  0.01782763  0.90943724  0.61674210  1
  C  C401  1  0.00481489  0.86720950  0.62018733  1
  C  C402  1  0.02007654  0.83927000  0.62889289  1
  C  C403  1  0.00963162  0.79897872  0.63438879  1
  C  C404  1  0.99479442  0.65343304  0.65900506  1
  C  C405  1  0.00892121  0.69492086  0.65564530  1
  C  C406  1  0.99461917  0.72389833  0.64609499  1
  C  C407  1  0.00581642  0.76360895  0.64060552  1
  C  C408  1  0.01471729  0.89909609  0.39514607  1
  C  C409  1  0.00217151  0.86033888  0.38548466  1
  C  C410  1  0.01747180  0.82852150  0.38446468  1
  C  C411  1  1.00840632  0.79095374  0.37441500  1
  C  C412  1  0.99212151  0.65081793  0.34345433  1
  C  C413  1  0.00731075  0.68611859  0.35358989  1
  C  C414  1  0.99408277  0.72107155  0.35623547  1
  C  C415  1  0.00499740  0.75669104  0.36675634  1
  C  C416  1  0.01553928  0.10701671  0.39041724  1
  C  C417  1  0.00358641  0.14352853  0.38863348  1
  C  C418  1  0.01834959  0.17655307  0.37618816  1
  C  C419  1  0.00940992  0.21320703  0.37211111  1
  C  C420  1  0.99540371  0.35132918  0.34913368  1
  C  C421  1  0.00931773  0.31750645  0.35037876  1
  C  C422  1  0.99605148  0.28239325  0.36289709  1
  C  C423  1  0.00628312  0.24701740  0.36626056  1
  C  C424  1  -0.00317871  0.98773182  0.48691065  1
  C  C425  1  0.00865295  0.99307593  0.52312395  1
  N  N426  1  0.00359349  0.04500813  0.61788398  1
  N  N427  1  1.00061153  0.07814932  0.58407762  1
  N  N428  1  0.00574347  0.97516977  0.61902696  1
  N  N429  1  0.99287262  0.96805272  0.55515369  1
  N  N430  1  1.00080969  0.04062054  0.55232427  1
  N  N431  1  -0.00068517  0.93531517  0.58726412  1
  N  N432  1  0.00007366  0.00696722  0.58604059  1
  N  N433  1  1.00330326  0.96610920  0.38934703  1
  N  N434  1  0.99386432  0.92803045  0.42121502  1
  N  N435  1  0.00193568  0.03634279  0.38949752  1
  N  N436  1  0.99864123  0.03504316  0.45522430  1
  N  N437  1  0.99069241  0.96213338  0.45343174  1
  N  N438  1  0.00165807  0.07179484  0.42301831  1
  N  N439  1  0.99797912  -0.00001132  0.42191852  1
  N  N440  1  0.00568345  0.01839214  0.50351957  1
  O  O441  1  0.74268898  0.26033213  0.05494111  1
  O  O442  1  0.73974704  0.26839208  0.95032690  1
  O  O443  1  0.66945773  0.32199383  0.01175584  1
  O  O444  1  0.26564412  0.69358336  0.95484667  1
  O  O445  1  0.27090368  0.69919450  0.05840783  1
  O  O446  1  0.34781869  0.70047469  0.99744469  1
