# generated using pymatgen
data_MnH166C336S2(NO)4
_symmetry_space_group_name_H-M   'P 1'
_cell_length_a   75.88721193
_cell_length_b   75.91003337
_cell_length_c   41.40339896
_cell_angle_alpha   90.62439670
_cell_angle_beta   90.64151245
_cell_angle_gamma   91.33616769
_symmetry_Int_Tables_number   1
_chemical_formula_structural   MnH166C336S2(NO)4
_chemical_formula_sum   'Mn1 H166 C336 S2 N4 O4'
_cell_volume   238413.79953748
_cell_formula_units_Z   1
loop_
 _symmetry_equiv_pos_site_id
 _symmetry_equiv_pos_as_xyz
  1  'x, y, z'
loop_
 _atom_site_type_symbol
 _atom_site_label
 _atom_site_symmetry_multiplicity
 _atom_site_fract_x
 _atom_site_fract_y
 _atom_site_fract_z
 _atom_site_occupancy
  Mn  Mn0  1  0.50615176  0.51310381  0.50162457  1
  H  H1  1  0.02148498  0.51505460  0.11546954  1
  H  H2  1  0.99113940  0.50275073  0.11473068  1
  H  H3  1  0.99033247  0.50386814  0.88792980  1
  H  H4  1  0.02042790  0.51685209  0.88859173  1
  H  H5  1  0.50388423  0.02748495  0.11518678  1
  H  H6  1  0.51633855  0.99778596  0.11490707  1
  H  H7  1  0.51534089  0.99704854  0.88801816  1
  H  H8  1  0.50208953  0.02636596  0.88822268  1
  H  H9  1  0.49256419  0.44965671  0.55324545  1
  H  H10  1  0.49406807  0.44844612  0.44949226  1
  H  H11  1  0.49909321  0.48191359  0.55114919  1
  H  H12  1  0.50205485  0.48045748  0.45150698  1
  H  H13  1  0.56858003  0.49736065  0.44943588  1
  H  H14  1  0.56886989  0.49543012  0.55326421  1
  H  H15  1  0.53739924  0.50664432  0.45189731  1
  H  H16  1  0.53719543  0.50334008  0.55151206  1
  H  H17  1  0.47261872  0.50814184  0.54677380  1
  H  H18  1  0.44085666  0.51551709  0.54873540  1
  H  H19  1  0.44670655  0.53880059  0.45502707  1
  H  H20  1  0.47847315  0.53155364  0.45782269  1
  H  H21  1  0.50132119  0.52632736  0.43095607  1
  H  H22  1  0.52440257  0.54092904  0.45601203  1
  H  H23  1  0.53280569  0.57280859  0.45391236  1
  H  H24  1  0.50997120  0.57889841  0.54792704  1
  H  H25  1  0.50138646  0.54705218  0.54517745  1
  H  H26  1  0.49623598  0.52344499  0.57199860  1
  H  H27  1  0.21498351  0.57832436  0.55980759  1
  H  H28  1  0.27480401  0.58486697  0.55960265  1
  H  H29  1  0.30786929  0.58556925  0.55576197  1
  H  H30  1  0.30328150  0.57451228  0.45308806  1
  H  H31  1  0.27029356  0.57403683  0.45736913  1
  H  H32  1  0.21836279  0.57952838  0.45652769  1
  H  H33  1  0.18852480  0.58612686  0.36297828  1
  H  H34  1  0.17060842  0.58360233  0.31109890  1
  H  H35  1  0.12360464  0.57370044  0.36723328  1
  H  H36  1  0.14212916  0.57375851  0.41831372  1
  H  H37  1  0.16767471  0.57904350  0.50186798  1
  H  H38  1  0.13890154  0.57272365  0.59125970  1
  H  H39  1  0.12134380  0.57499427  0.64259706  1
  H  H40  1  0.16981268  0.58370262  0.69722280  1
  H  H41  1  0.18700256  0.58283699  0.64531958  1
  H  H42  1  0.44089507  0.21836841  0.55721046  1
  H  H43  1  0.43432003  0.27783241  0.55678924  1
  H  H44  1  0.43356778  0.31086034  0.55288224  1
  H  H45  1  0.44464701  0.30679138  0.45067152  1
  H  H46  1  0.44516822  0.27383363  0.45499917  1
  H  H47  1  0.43971235  0.22170892  0.45388028  1
  H  H48  1  0.43318822  0.19150778  0.36002079  1
  H  H49  1  0.43571101  0.17373264  0.30826307  1
  H  H50  1  0.44562165  0.12720316  0.36477597  1
  H  H51  1  0.44553295  0.14569981  0.41583312  1
  H  H52  1  0.44025076  0.17105373  0.49925108  1
  H  H53  1  0.44657085  0.14255514  0.58891076  1
  H  H54  1  0.44428446  0.12489139  0.64016264  1
  H  H55  1  0.43554302  0.17293380  0.69438411  1
  H  H56  1  0.43642220  0.19017303  0.64249915  1
  H  H57  1  0.79636946  0.43928067  0.44322773  1
  H  H58  1  0.73704163  0.44460760  0.44348145  1
  H  H59  1  0.70400156  0.44625460  0.44738661  1
  H  H60  1  0.70763376  0.43523758  0.54970219  1
  H  H61  1  0.74044924  0.43378527  0.54526157  1
  H  H62  1  0.79309238  0.44045893  0.54658059  1
  H  H63  1  0.82271650  0.44618551  0.63982386  1
  H  H64  1  0.84052406  0.44579315  0.69189376  1
  H  H65  1  0.88751922  0.43542394  0.63696722  1
  H  H66  1  0.86909435  0.43362085  0.58580122  1
  H  H67  1  0.84372323  0.43991504  0.50114607  1
  H  H68  1  0.87229982  0.43265911  0.41047142  1
  H  H69  1  0.88982028  0.43673864  0.35944252  1
  H  H70  1  0.84132024  0.44605826  0.30663497  1
  H  H71  1  0.82424536  0.44292650  0.35835013  1
  H  H72  1  0.57955424  0.80577040  0.44582377  1
  H  H73  1  0.57420240  0.74624165  0.44583233  1
  H  H74  1  0.57256763  0.71312667  0.44966980  1
  H  H75  1  0.58350941  0.71727267  0.55246857  1
  H  H76  1  0.58495231  0.75015397  0.54809027  1
  H  H77  1  0.57834671  0.80243235  0.54912593  1
  H  H78  1  0.57263125  0.83184072  0.64218001  1
  H  H79  1  0.57300773  0.84968208  0.69422852  1
  H  H80  1  0.58335507  0.89713165  0.63967161  1
  H  H81  1  0.58518057  0.87878101  0.58862765  1
  H  H82  1  0.57888696  0.85307677  0.50368668  1
  H  H83  1  0.58613794  0.88197609  0.41337039  1
  H  H84  1  0.58206002  0.89934229  0.36219504  1
  H  H85  1  0.57282242  0.85045818  0.30887443  1
  H  H86  1  0.57593001  0.83350117  0.36068704  1
  H  H87  1  0.36886514  0.58710918  0.50424997  1
  H  H88  1  0.34627920  0.53427213  0.50274909  1
  H  H89  1  0.31639810  0.54678589  0.50285836  1
  H  H90  1  0.33901422  0.59933953  0.50537382  1
  H  H91  1  0.48504587  0.35145896  0.50170918  1
  H  H92  1  0.43228421  0.37178598  0.50188007  1
  H  H93  1  0.41992280  0.34141058  0.50242850  1
  H  H94  1  0.47239760  0.32105044  0.50123117  1
  H  H95  1  0.64251128  0.43463208  0.49943493  1
  H  H96  1  0.66584828  0.48712407  0.49918463  1
  H  H97  1  0.69550773  0.47420056  0.49877786  1
  H  H98  1  0.67214428  0.42196168  0.49986954  1
  H  H99  1  0.53153698  0.67329147  0.50109120  1
  H  H100  1  0.58394472  0.65215755  0.50147228  1
  H  H101  1  0.59676707  0.68231661  0.50220595  1
  H  H102  1  0.54461450  0.70348908  0.50104391  1
  H  H103  1  0.08361952  0.52275771  0.89787752  1
  H  H104  1  0.10194864  0.53254021  0.85362109  1
  H  H105  1  0.05638096  0.55540490  0.80840743  1
  H  H106  1  0.03844060  0.54548021  0.85317251  1
  H  H107  1  0.07177869  0.56397700  0.77172176  1
  H  H108  1  0.09074567  0.57397244  0.72815362  1
  H  H109  1  0.13547059  0.55110840  0.77404436  1
  H  H110  1  0.11717384  0.54081829  0.81818452  1
  H  H111  1  0.50544427  0.05642146  0.84638682  1
  H  H112  1  0.49597789  0.07406615  0.80108830  1
  H  H113  1  0.45356353  0.09399658  0.85882476  1
  H  H114  1  0.46332674  0.07614684  0.90351529  1
  H  H115  1  0.44548459  0.10867861  0.82314361  1
  H  H116  1  0.43585297  0.12676803  0.77845058  1
  H  H117  1  0.47756982  0.10769843  0.71972470  1
  H  H118  1  0.48781268  0.08929249  0.76367831  1
  H  H119  1  0.93027905  0.47546678  0.09369866  1
  H  H120  1  0.91196137  0.46575145  0.13804363  1
  H  H121  1  0.95286286  0.48302286  0.20544323  1
  H  H122  1  0.97086175  0.49256204  0.16054772  1
  H  H123  1  0.93748712  0.47463985  0.24256750  1
  H  H124  1  0.91857353  0.46460065  0.28621423  1
  H  H125  1  0.87863198  0.44781255  0.21801032  1
  H  H126  1  0.89692221  0.45760619  0.17350613  1
  H  H127  1  0.50944798  0.94587328  0.12970306  1
  H  H128  1  0.51890172  0.92777043  0.17435573  1
  H  H129  1  0.57023358  0.95361232  0.17247189  1
  H  H130  1  0.56030147  0.97151305  0.12787698  1
  H  H131  1  0.57854446  0.93848285  0.20856137  1
  H  H132  1  0.58811432  0.91994074  0.25273758  1
  H  H133  1  0.53725441  0.89431588  0.25484371  1
  H  H134  1  0.52696335  0.91248942  0.21070638  1
  H  H135  1  0.50876457  0.08196276  0.12762409  1
  H  H136  1  0.49916834  0.10001289  0.17254830  1
  H  H137  1  0.45120503  0.06835475  0.17734685  1
  H  H138  1  0.46124664  0.05056005  0.13238691  1
  H  H139  1  0.44276970  0.08341291  0.21384735  1
  H  H140  1  0.43301149  0.10203363  0.25814484  1
  H  H141  1  0.48059480  0.13332762  0.25337699  1
  H  H142  1  0.49102661  0.11517938  0.20902645  1
  H  H143  1  0.08464034  0.53184661  0.10147597  1
  H  H144  1  0.10297318  0.54167882  0.14682739  1
  H  H145  1  0.05633920  0.54610325  0.20509460  1
  H  H146  1  0.03836748  0.53634319  0.15915043  1
  H  H147  1  0.07177669  0.55471317  0.24292350  1
  H  H148  1  0.09081196  0.56486539  0.28751110  1
  H  H149  1  0.13637509  0.56009003  0.22816594  1
  H  H150  1  0.11804291  0.54990174  0.18287120  1
  H  H151  1  0.97362118  0.48097680  0.84444256  1
  H  H152  1  0.95550997  0.47137890  0.79859619  1
  H  H153  1  0.90891418  0.47742154  0.85637483  1
  H  H154  1  0.92739252  0.48708380  0.90166559  1
  H  H155  1  0.89368456  0.46922903  0.82019713  1
  H  H156  1  0.87530461  0.45918040  0.77484656  1
  H  H157  1  0.92095633  0.45297662  0.71627151  1
  H  H158  1  0.94004870  0.46294886  0.76091143  1
  H  H159  1  0.51696907  0.97082035  0.84322633  1
  H  H160  1  0.52633589  0.95307862  0.79770143  1
  H  H161  1  0.56346870  0.92721413  0.86010641  1
  H  H162  1  0.55385639  0.94518777  0.90505822  1
  H  H163  1  0.57147995  0.91247104  0.82418332  1
  H  H164  1  0.58101285  0.89435004  0.77913395  1
  H  H165  1  0.54450671  0.91930964  0.71577534  1
  H  H166  1  0.53442549  0.93784694  0.76002290  1
  C  C167  1  0.99780750  0.50454078  0.03274121  1
  C  C168  1  0.99789450  0.50538050  0.09217876  1
  C  C169  1  0.98908586  0.50100239  0.06307107  1
  C  C170  1  0.98918898  0.49901224  0.00116137  1
  C  C171  1  0.99771052  0.50460303  0.97009827  1
  C  C172  1  0.98893084  0.50103065  0.93935471  1
  C  C173  1  0.02300441  0.51732807  0.94026410  1
  C  C174  1  0.01451609  0.51324358  0.97055581  1
  C  C175  1  0.02348184  0.51813004  0.00212959  1
  C  C176  1  0.01465555  0.51308706  0.03319169  1
  C  C177  1  0.01392930  0.51360343  0.91115654  1
  C  C178  1  0.99732197  0.50615545  0.91076687  1
  C  C179  1  0.02331212  0.51693767  0.06393070  1
  C  C180  1  0.01462207  0.51251476  0.09259194  1
  C  C181  1  0.51446150  0.00438262  0.03289047  1
  C  C182  1  0.51367766  0.00441419  0.09221919  1
  C  C183  1  0.51795435  0.99576586  0.06329055  1
  C  C184  1  0.51992300  0.99596294  0.00153920  1
  C  C185  1  0.51436635  0.00421628  0.97021998  1
  C  C186  1  0.51774944  0.99551063  0.93959678  1
  C  C187  1  0.50209808  0.02912457  0.93985735  1
  C  C188  1  0.50595393  0.02073176  0.97033037  1
  C  C189  1  0.50107135  0.02949693  0.00168634  1
  C  C190  1  0.50604864  0.02090599  0.03300278  1
  C  C191  1  0.50552358  0.02010317  0.91090688  1
  C  C192  1  0.51286457  0.00380443  0.91079996  1
  C  C193  1  0.50227257  0.02944798  0.06356775  1
  C  C194  1  0.50654662  0.02083427  0.09236510  1
  C  C195  1  0.49093464  0.44619796  0.50125424  1
  C  C196  1  0.49362300  0.45622937  0.52998721  1
  C  C197  1  0.49464125  0.45552653  0.47260385  1
  C  C198  1  0.49767004  0.47415097  0.52881745  1
  C  C199  1  0.49912304  0.47339582  0.47370609  1
  C  C200  1  0.57167332  0.49476349  0.50125319  1
  C  C201  1  0.56211242  0.49865397  0.47274868  1
  C  C202  1  0.56220183  0.49740324  0.53011187  1
  C  C203  1  0.54472793  0.50395015  0.47413723  1
  C  C204  1  0.54465374  0.50229290  0.52921406  1
  C  C205  1  0.46647678  0.51513117  0.52692398  1
  C  C206  1  0.44879913  0.51944897  0.52807804  1
  C  C207  1  0.44081135  0.52881027  0.50262311  1
  C  C208  1  0.45208952  0.53240401  0.47636267  1
  C  C209  1  0.46971896  0.52799801  0.47749658  1
  C  C210  1  0.52145403  0.54973222  0.47608362  1
  C  C211  1  0.52639081  0.56742834  0.47525870  1
  C  C212  1  0.52336685  0.57881631  0.50189266  1
  C  C213  1  0.51368585  0.57088551  0.52713087  1
  C  C214  1  0.50879976  0.55312163  0.52565602  1
  C  C215  1  0.20850898  0.57839979  0.53621527  1
  C  C216  1  0.21863931  0.57828790  0.50856821  1
  C  C217  1  0.23702011  0.57790160  0.51180606  1
  C  C218  1  0.25306497  0.57815732  0.51209203  1
  C  C219  1  0.27130550  0.57894954  0.50895924  1
  C  C220  1  0.28156519  0.58285713  0.53682529  1
  C  C221  1  0.29956524  0.58315001  0.53450690  1
  C  C222  1  0.30717074  0.57904926  0.50456452  1
  C  C223  1  0.29690279  0.57646965  0.47620538  1
  C  C224  1  0.27890935  0.57649932  0.47825389  1
  C  C225  1  0.21053094  0.57926353  0.47838827  1
  C  C226  1  0.19228045  0.57997468  0.47613537  1
  C  C227  1  0.18433166  0.58104077  0.44556453  1
  C  C228  1  0.17644226  0.58126662  0.41981282  1
  C  C229  1  0.16593774  0.58025714  0.39210198  1
  C  C230  1  0.17441458  0.58316550  0.36241670  1
  C  C231  1  0.16469047  0.58156745  0.33458757  1
  C  C232  1  0.14646044  0.57704074  0.33666198  1
  C  C233  1  0.13785186  0.57561059  0.36696640  1
  C  C234  1  0.14765850  0.57633141  0.39462985  1
  C  C235  1  0.18199872  0.57913461  0.50374075  1
  C  C236  1  0.19020822  0.57857812  0.53382725  1
  C  C237  1  0.18040587  0.57837311  0.56224366  1
  C  C238  1  0.17236093  0.57823232  0.58749098  1
  C  C239  1  0.16344691  0.57813071  0.61661065  1
  C  C240  1  0.14494956  0.57540277  0.61482215  1
  C  C241  1  0.13567252  0.57580692  0.64266372  1
  C  C242  1  0.14501404  0.57693862  0.67270374  1
  C  C243  1  0.16341561  0.58088378  0.67406247  1
  C  C244  1  0.17272860  0.58104992  0.64601784  1
  C  C245  1  0.44083463  0.21188885  0.53362133  1
  C  C246  1  0.44094854  0.22201534  0.50596681  1
  C  C247  1  0.44132223  0.24040617  0.50925544  1
  C  C248  1  0.44105034  0.25643338  0.50961978  1
  C  C249  1  0.44022888  0.27462385  0.50638885  1
  C  C250  1  0.43630057  0.28468967  0.53408657  1
  C  C251  1  0.43597870  0.30266704  0.53173427  1
  C  C252  1  0.44009896  0.31045647  0.50195852  1
  C  C253  1  0.44268334  0.30031683  0.47370431  1
  C  C254  1  0.44267456  0.28232971  0.47576575  1
  C  C255  1  0.43997704  0.21387609  0.47573650  1
  C  C256  1  0.43927774  0.19559779  0.47343919  1
  C  C257  1  0.43823537  0.18757782  0.44284031  1
  C  C258  1  0.43804178  0.17964790  0.41711267  1
  C  C259  1  0.43905698  0.16921079  0.38941334  1
  C  C260  1  0.43615888  0.17754226  0.35959807  1
  C  C261  1  0.43774808  0.16789839  0.33182809  1
  C  C262  1  0.44226162  0.14987995  0.33401298  1
  C  C263  1  0.44371328  0.14135714  0.36439292  1
  C  C264  1  0.44298296  0.15112218  0.39204243  1
  C  C265  1  0.44013264  0.18536848  0.50110250  1
  C  C266  1  0.44067711  0.19358954  0.53122206  1
  C  C267  1  0.44089989  0.18378119  0.55963213  1
  C  C268  1  0.44105162  0.17574262  0.58488685  1
  C  C269  1  0.44115578  0.16683758  0.61401747  1
  C  C270  1  0.44388854  0.14847323  0.61235887  1
  C  C271  1  0.44348166  0.13917876  0.64018978  1
  C  C272  1  0.44234136  0.14848411  0.67015317  1
  C  C273  1  0.43836819  0.16668654  0.67133162  1
  C  C274  1  0.43821504  0.17598858  0.64328372  1
  C  C275  1  0.80285557  0.43939354  0.46681372  1
  C  C276  1  0.79273098  0.43940046  0.49449092  1
  C  C277  1  0.77431742  0.43884983  0.49156764  1
  C  C278  1  0.75827141  0.43859824  0.49145522  1
  C  C279  1  0.74000087  0.43884778  0.49405635  1
  C  C280  1  0.73006517  0.44233283  0.46597795  1
  C  C281  1  0.71217991  0.44366550  0.46845985  1
  C  C282  1  0.70425988  0.44166146  0.49891818  1
  C  C283  1  0.71404873  0.43716065  0.52658907  1
  C  C284  1  0.73201216  0.43604062  0.52430639  1
  C  C285  1  0.80091141  0.44026084  0.52470369  1
  C  C286  1  0.81919175  0.44087926  0.52697434  1
  C  C287  1  0.82728651  0.44166539  0.55751454  1
  C  C288  1  0.83527233  0.44161062  0.58316718  1
  C  C289  1  0.84550004  0.44091004  0.61114723  1
  C  C290  1  0.83680780  0.44380282  0.64063717  1
  C  C291  1  0.84656854  0.44401432  0.66844516  1
  C  C292  1  0.86516919  0.44235513  0.66640833  1
  C  C293  1  0.87342256  0.43769975  0.63691842  1
  C  C294  1  0.86357824  0.43680588  0.60925169  1
  C  C295  1  0.82940177  0.44003558  0.49930004  1
  C  C296  1  0.82116979  0.43943851  0.46919541  1
  C  C297  1  0.83108564  0.43898159  0.44091510  1
  C  C298  1  0.83913778  0.43869166  0.41567208  1
  C  C299  1  0.84792598  0.43886329  0.38641017  1
  C  C300  1  0.86626376  0.43595422  0.38740774  1
  C  C301  1  0.87557737  0.43799148  0.35978198  1
  C  C302  1  0.86652560  0.44248545  0.33081911  1
  C  C303  1  0.84783135  0.44351209  0.32957357  1
  C  C304  1  0.83851095  0.44178599  0.35738849  1
  C  C305  1  0.57942585  0.81225496  0.46939652  1
  C  C306  1  0.57940367  0.80214113  0.49708638  1
  C  C307  1  0.57994159  0.78376025  0.49417090  1
  C  C308  1  0.58018783  0.76773129  0.49402977  1
  C  C309  1  0.57994498  0.74945784  0.49664997  1
  C  C310  1  0.57648276  0.73936667  0.46841758  1
  C  C311  1  0.57517017  0.72142324  0.47084194  1
  C  C312  1  0.57718489  0.71360442  0.50138757  1
  C  C313  1  0.58160697  0.72360373  0.52927324  1
  C  C314  1  0.58272644  0.74161314  0.52703804  1
  C  C315  1  0.57855109  0.81027132  0.52726886  1
  C  C316  1  0.57795199  0.82851786  0.52951922  1
  C  C317  1  0.57718627  0.83658885  0.56001770  1
  C  C318  1  0.57723777  0.84458663  0.58566001  1
  C  C319  1  0.57790756  0.85485011  0.61366853  1
  C  C320  1  0.57500361  0.84604166  0.64305547  1
  C  C321  1  0.57478931  0.85579870  0.67084048  1
  C  C322  1  0.57644674  0.87447125  0.66888553  1
  C  C323  1  0.58108338  0.88293160  0.63956798  1
  C  C324  1  0.58198840  0.87311984  0.61194891  1
  C  C325  1  0.57877607  0.83875428  0.50185216  1
  C  C326  1  0.57937363  0.83055876  0.47176640  1
  C  C327  1  0.57983578  0.84048531  0.44348738  1
  C  C328  1  0.58013272  0.84854325  0.41824495  1
  C  C329  1  0.57997060  0.85733440  0.38898097  1
  C  C330  1  0.58285931  0.87580541  0.39014928  1
  C  C331  1  0.58083389  0.88504222  0.36245683  1
  C  C332  1  0.57639502  0.87581468  0.33325380  1
  C  C333  1  0.57534945  0.85707861  0.33192914  1
  C  C334  1  0.57706039  0.84781805  0.35980759  1
  C  C335  1  0.35738351  0.57821649  0.50402468  1
  C  C336  1  0.36006297  0.55968457  0.50335453  1
  C  C337  1  0.34471453  0.54851097  0.50287895  1
  C  C338  1  0.32810360  0.55537621  0.50269863  1
  C  C339  1  0.42320695  0.53431261  0.50304596  1
  C  C340  1  0.34068703  0.58511815  0.50474815  1
  C  C341  1  0.37698852  0.55253795  0.50318533  1
  C  C342  1  0.39189465  0.54651507  0.50316285  1
  C  C343  1  0.40814323  0.53997543  0.50314418  1
  C  C344  1  0.32594824  0.57372694  0.50379521  1
  C  C345  1  0.47079441  0.34929045  0.50141429  1
  C  C346  1  0.45967729  0.36415406  0.50167754  1
  C  C347  1  0.44112649  0.36068182  0.50181999  1
  C  C348  1  0.43415406  0.34369692  0.50222364  1
  C  C349  1  0.48519769  0.42840734  0.50132954  1
  C  C350  1  0.46385442  0.33239015  0.50089159  1
  C  C351  1  0.46685655  0.38139730  0.50175856  1
  C  C352  1  0.47287753  0.39658050  0.50162767  1
  C  C353  1  0.47940852  0.41312861  0.50147649  1
  C  C354  1  0.44549046  0.32945284  0.50143956  1
  C  C355  1  0.65410970  0.44337142  0.49973314  1
  C  C356  1  0.65166876  0.46194045  0.49960871  1
  C  C357  1  0.66718854  0.47285747  0.49926265  1
  C  C358  1  0.68370313  0.46574841  0.49897604  1
  C  C359  1  0.58905449  0.48859942  0.50085190  1
  C  C360  1  0.67071491  0.43622258  0.50015425  1
  C  C361  1  0.63484938  0.46935536  0.49974634  1
  C  C362  1  0.62006300  0.47566193  0.50009817  1
  C  C363  1  0.60394737  0.48251530  0.50048306  1
  C  C364  1  0.68563798  0.44738293  0.50031952  1
  C  C365  1  0.54581758  0.67522335  0.50129055  1
  C  C366  1  0.55666795  0.66015709  0.50160413  1
  C  C367  1  0.57525713  0.66338377  0.50181685  1
  C  C368  1  0.58249549  0.68028667  0.50237071  1
  C  C369  1  0.52955478  0.59648373  0.50258414  1
  C  C370  1  0.55300789  0.69203410  0.50120321  1
  C  C371  1  0.54919137  0.64301796  0.50166398  1
  C  C372  1  0.54275442  0.62799384  0.50204613  1
  C  C373  1  0.53574954  0.61161677  0.50245626  1
  C  C374  1  0.57140653  0.69473405  0.50263509  1
  C  C375  1  0.04014172  0.52485461  0.93209592  1
  C  C376  1  0.04916166  0.52906988  0.90836344  1
  C  C377  1  0.05956009  0.53415377  0.88095922  1
  C  C378  1  0.07763448  0.53032811  0.87858977  1
  C  C379  1  0.08804558  0.53578904  0.85287669  1
  C  C380  1  0.08116224  0.54528893  0.82660519  1
  C  C381  1  0.06285775  0.54841268  0.82791337  1
  C  C382  1  0.05252231  0.54289718  0.85375085  1
  C  C383  1  0.09249726  0.55140026  0.79962811  1
  C  C384  1  0.08569664  0.56092197  0.77317268  1
  C  C385  1  0.09635996  0.56671820  0.74826247  1
  C  C386  1  0.11459225  0.56350676  0.74806036  1
  C  C387  1  0.12141616  0.55388542  0.77406419  1
  C  C388  1  0.11081830  0.54807206  0.79897331  1
  C  C389  1  0.12572838  0.56925334  0.72301573  1
  C  C390  1  0.13512900  0.57361909  0.70049975  1
  C  C391  1  0.49489605  0.04602504  0.93126892  1
  C  C392  1  0.49071471  0.05480638  0.90729391  1
  C  C393  1  0.48553100  0.06501415  0.87979423  1
  C  C394  1  0.49407387  0.06479008  0.84944432  1
  C  C395  1  0.48854794  0.07492490  0.82341450  1
  C  C396  1  0.47384119  0.08603499  0.82531429  1
  C  C397  1  0.46509980  0.08596625  0.85525372  1
  C  C398  1  0.47069274  0.07583798  0.88107939  1
  C  C399  1  0.46775744  0.09708938  0.79807623  1
  C  C400  1  0.45293655  0.10804171  0.80091084  1
  C  C401  1  0.44729149  0.11843766  0.77571181  1
  C  C402  1  0.45599263  0.11872870  0.74592221  1
  C  C403  1  0.47067541  0.10776675  0.74270943  1
  C  C404  1  0.47636809  0.09733964  0.76786987  1
  C  C405  1  0.45008998  0.12967431  0.72088435  1
  C  C406  1  0.44566482  0.13884892  0.69819469  1
  C  C407  1  0.97198605  0.49351172  0.07141684  1
  C  C408  1  0.96293055  0.48950485  0.09522191  1
  C  C409  1  0.95239260  0.48456983  0.12253568  1
  C  C410  1  0.93534490  0.47705377  0.11831084  1
  C  C411  1  0.92487229  0.47156887  0.14389262  1
  C  C412  1  0.93051815  0.47326638  0.17641925  1
  C  C413  1  0.94749317  0.48110788  0.18108997  1
  C  C414  1  0.95792644  0.48655410  0.15530557  1
  C  C415  1  0.91918557  0.46720249  0.20342973  1
  C  C416  1  0.92466849  0.46881760  0.23618721  1
  C  C417  1  0.91403243  0.46316966  0.26120813  1
  C  C418  1  0.89713697  0.45552622  0.25538149  1
  C  C419  1  0.89164144  0.45376037  0.22292534  1
  C  C420  1  0.90222924  0.45939810  0.19784353  1
  C  C421  1  0.88600533  0.45013073  0.28065443  1
  C  C422  1  0.87667341  0.44607187  0.30345063  1
  C  C423  1  0.52527334  0.97888542  0.07169756  1
  C  C424  1  0.52937505  0.96975481  0.09528267  1
  C  C425  1  0.53444399  0.95945629  0.12276734  1
  C  C426  1  0.52302755  0.94731494  0.13841177  1
  C  C427  1  0.52846175  0.93710550  0.16438274  1
  C  C428  1  0.54570664  0.93852165  0.17769113  1
  C  C429  1  0.55682982  0.95137560  0.16337920  1
  C  C430  1  0.55129172  0.96152071  0.13747582  1
  C  C431  1  0.55172363  0.92738982  0.20488606  1
  C  C432  1  0.56905945  0.92893996  0.21797305  1
  C  C433  1  0.57469873  0.91846364  0.24312198  1
  C  C434  1  0.56345820  0.90568849  0.25702234  1
  C  C435  1  0.54616495  0.90410787  0.24426047  1
  C  C436  1  0.54048375  0.91453851  0.21915609  1
  C  C437  1  0.56896123  0.89501362  0.28274458  1
  C  C438  1  0.57295351  0.88589881  0.30578788  1
  C  C439  1  0.49465844  0.04620179  0.07232628  1
  C  C440  1  0.49040189  0.05522332  0.09615248  1
  C  C441  1  0.48525701  0.06543721  0.12389451  1
  C  C442  1  0.49582594  0.07919881  0.13785679  1
  C  C443  1  0.49035343  0.08937646  0.16400407  1
  C  C444  1  0.47398148  0.08632215  0.17923904  1
  C  C445  1  0.46384693  0.07188815  0.16667817  1
  C  C446  1  0.46942122  0.06178193  0.14056183  1
  C  C447  1  0.46789871  0.09743419  0.20659382  1
  C  C448  1  0.45145399  0.09426552  0.22170195  1
  C  C449  1  0.44569885  0.10479155  0.24685915  1
  C  C450  1  0.45587353  0.11929239  0.25858898  1
  C  C451  1  0.47240215  0.12233512  0.24415477  1
  C  C452  1  0.47819640  0.11186287  0.21902279  1
  C  C453  1  0.45004829  0.13025309  0.28384328  1
  C  C454  1  0.44574892  0.13962837  0.30652047  1
  C  C455  1  0.04035282  0.52469246  0.07300393  1
  C  C456  1  0.04935381  0.52884255  0.09732297  1
  C  C457  1  0.05977095  0.53391122  0.12531468  1
  C  C458  1  0.07832455  0.53527454  0.12412703  1
  C  C459  1  0.08878376  0.54076479  0.15036187  1
  C  C460  1  0.08155600  0.54515171  0.18061347  1
  C  C461  1  0.06298930  0.54320408  0.18251346  1
  C  C462  1  0.05259538  0.53770524  0.15609545  1
  C  C463  1  0.09291352  0.55129149  0.20820707  1
  C  C464  1  0.08588532  0.55575297  0.23872587  1
  C  C465  1  0.09657072  0.56156081  0.26425335  1
  C  C466  1  0.11501404  0.56336477  0.26102168  1
  C  C467  1  0.12210205  0.55886770  0.23085433  1
  C  C468  1  0.11149071  0.55306244  0.20533821  1
  C  C469  1  0.12633754  0.56907798  0.28645072  1
  C  C470  1  0.13599023  0.57342930  0.30916571  1
  C  C471  1  0.97198005  0.49308966  0.93022720  1
  C  C472  1  0.96282016  0.48906773  0.90602820  1
  C  C473  1  0.95225905  0.48413465  0.87811517  1
  C  C474  1  0.95936740  0.47998911  0.84744133  1
  C  C475  1  0.94888969  0.47459367  0.82106152  1
  C  C476  1  0.93028695  0.47313425  0.82285498  1
  C  C477  1  0.92312601  0.47792483  0.85295907  1
  C  C478  1  0.93367264  0.48330893  0.87916610  1
  C  C479  1  0.91886706  0.46709401  0.79526615  1
  C  C480  1  0.90024671  0.46577031  0.79788561  1
  C  C481  1  0.88960576  0.46006096  0.77231775  1
  C  C482  1  0.89672574  0.45525340  0.74232132  1
  C  C483  1  0.91520872  0.45656880  0.73939621  1
  C  C484  1  0.92591323  0.46226893  0.76494809  1
  C  C485  1  0.88558558  0.44976316  0.71649044  1
  C  C486  1  0.87596027  0.44562997  0.69359840  1
  C  C487  1  0.52546292  0.97886049  0.93057812  1
  C  C488  1  0.52947378  0.96994815  0.90646567  1
  C  C489  1  0.53445351  0.95956003  0.87883587  1
  C  C490  1  0.52721376  0.96120762  0.84723629  1
  C  C491  1  0.53264028  0.95096489  0.82108938  1
  C  C492  1  0.54586635  0.93820418  0.82417682  1
  C  C493  1  0.55316243  0.93664181  0.85551244  1
  C  C494  1  0.54767076  0.94688225  0.88145330  1
  C  C495  1  0.55187118  0.92708256  0.79677989  1
  C  C496  1  0.56518814  0.91444094  0.80083028  1
  C  C497  1  0.57076604  0.90401435  0.77543716  1
  C  C498  1  0.56347588  0.90540471  0.74422088  1
  C  C499  1  0.55028733  0.91800855  0.73985473  1
  C  C500  1  0.54467432  0.92846776  0.76518959  1
  C  C501  1  0.56906934  0.89444581  0.71880426  1
  C  C502  1  0.57321177  0.88503456  0.69606290  1
  S  S503  1  0.50717969  0.51131582  0.44510241  1
  S  S504  1  0.50729102  0.51164381  0.55807673  1
  N  N505  1  0.50000086  0.48316070  0.50115799  1
  N  N506  1  0.53565017  0.50579737  0.50181316  1
  N  N507  1  0.47730393  0.51944597  0.50235184  1
  N  N508  1  0.51286531  0.54215451  0.50100126  1
  O  O509  1  0.97559871  0.48980075  0.00074229  1
  O  O510  1  0.03765159  0.52640935  0.00254208  1
  O  O511  1  0.52908536  0.98277211  0.00154590  1
  O  O512  1  0.49281352  0.04328865  0.00170468  1
