# generated using pymatgen
data_Be4H232C180N6O25
_symmetry_space_group_name_H-M   'P 1'
_cell_length_a   58.86826956
_cell_length_b   59.74204285
_cell_length_c   35.82378840
_cell_angle_alpha   90.28767588
_cell_angle_beta   89.79172041
_cell_angle_gamma   127.36051539
_symmetry_Int_Tables_number   1
_chemical_formula_structural   Be4H232C180N6O25
_chemical_formula_sum   'Be4 H232 C180 N6 O25'
_cell_volume   100138.97570166
_cell_formula_units_Z   1
loop_
 _symmetry_equiv_pos_site_id
 _symmetry_equiv_pos_as_xyz
  1  'x, y, z'
loop_
 _atom_site_type_symbol
 _atom_site_label
 _atom_site_symmetry_multiplicity
 _atom_site_fract_x
 _atom_site_fract_y
 _atom_site_fract_z
 _atom_site_occupancy
  Be  Be0  1  0.71232540  0.35784541  0.55368162  1
  Be  Be1  1  0.69612770  0.39307138  0.47476915  1
  Be  Be2  1  0.69882393  0.39544237  0.55411530  1
  Be  Be3  1  0.71118068  0.35634957  0.47366063  1
  H  H4  1  0.05328095  0.06657202  0.01047345  1
  H  H5  1  0.96107374  0.01705949  0.01340148  1
  H  H6  1  0.00165334  0.97683136  0.01383410  1
  H  H7  1  0.87822545  0.34734341  0.77308420  1
  H  H8  1  0.81734853  0.29670209  0.79476958  1
  H  H9  1  0.80802934  0.27152821  0.84956883  1
  H  H10  1  0.82328578  0.25914343  0.90413269  1
  H  H11  1  0.91128309  0.32799172  0.87987829  1
  H  H12  1  0.89588898  0.34063351  0.82498650  1
  H  H13  1  0.84577636  0.24431900  0.93520513  1
  H  H14  1  0.84270950  0.26825475  0.95934857  1
  H  H15  1  0.87138353  0.30864114  0.04096577  1
  H  H16  1  0.84141093  0.27954972  0.01777806  1
  H  H17  1  0.87016512  0.30795157  0.99168788  1
  H  H18  1  0.87481076  0.23873055  0.92144463  1
  H  H19  1  0.86066548  0.21008136  0.95226528  1
  H  H20  1  0.89707168  0.23073593  0.93857024  1
  H  H21  1  0.92933536  0.28199083  0.09575853  1
  H  H22  1  0.94641009  0.27486557  0.06210095  1
  H  H23  1  0.91481251  0.24697980  0.08453020  1
  H  H24  1  0.91191043  0.22488753  0.03374942  1
  H  H25  1  0.90648316  0.22070160  0.98467819  1
  H  H26  1  0.92194703  0.19893452  0.00841523  1
  H  H27  1  0.94713219  0.17825585  0.00847231  1
  H  H28  1  0.02739395  0.26041973  0.99250577  1
  H  H29  1  0.00168820  0.28108820  0.99030456  1
  H  H30  1  0.02449937  0.21549586  -0.00816654  1
  H  H31  1  0.98106231  0.17461079  0.04953665  1
  H  H32  1  0.92308611  0.30932819  0.09006173  1
  H  H33  1  0.90164284  0.31803989  0.07159462  1
  H  H34  1  0.92196827  0.33809580  0.12450585  1
  H  H35  1  0.91894915  0.36380639  0.17540319  1
  H  H36  1  0.83783541  0.28762759  0.20934502  1
  H  H37  1  0.84108248  0.26155201  0.15830142  1
  H  H38  1  0.89198495  0.36647732  0.22366738  1
  H  H39  1  0.84709440  0.31125667  0.26412073  1
  H  H40  1  0.49780062  0.20405407  0.26188946  1
  H  H41  1  0.52076122  0.17293672  0.23227007  1
  H  H42  1  0.49285099  0.13823380  0.18369177  1
  H  H43  1  0.46216727  0.12182430  0.12839523  1
  H  H44  1  0.44954601  0.18486114  0.14805892  1
  H  H45  1  0.48110580  0.20191955  0.20313549  1
  H  H46  1  0.42144559  0.10445343  0.08904632  1
  H  H47  1  0.45405035  0.13130342  0.06733269  1
  H  H48  1  0.47190162  0.16975843  0.98366602  1
  H  H49  1  0.46819419  0.14167029  0.00657478  1
  H  H50  1  0.47287925  0.16936285  0.03294147  1
  H  H51  1  0.38358357  0.09627660  0.10355305  1
  H  H52  1  0.36291590  0.06742947  0.07244832  1
  H  H53  1  0.35132393  0.08757400  0.08576651  1
  H  H54  1  0.37861834  0.13818133  0.93036682  1
  H  H55  1  0.35340071  0.12988570  0.96552315  1
  H  H56  1  0.35102895  0.10278571  0.94111866  1
  H  H57  1  0.32840942  0.07897171  0.99030997  1
  H  H58  1  0.32928504  0.07375033  0.03885984  1
  H  H59  1  0.28589954  0.05264469  0.01807420  1
  H  H60  1  0.23573486  0.03420908  0.01469507  1
  H  H61  1  0.26114413  0.11797532  0.03436217  1
  H  H62  1  0.31190016  0.13671108  0.03602441  1
  H  H63  1  0.21882186  0.08755265  0.01348289  1
  H  H64  1  0.18265995  0.02284294  0.01573513  1
  H  H65  1  0.41808994  0.16565335  0.93467885  1
  H  H66  1  0.45143026  0.17706743  0.95246336  1
  H  H67  1  0.45148244  0.19544984  0.89774841  1
  H  H68  1  0.48459011  0.22284199  0.84642586  1
  H  H69  1  0.47895008  0.15054533  0.81066673  1
  H  H70  1  0.44622714  0.12329367  0.86318761  1
  H  H71  1  0.51053230  0.22835240  0.79455997  1
  H  H72  1  0.51787561  0.18342220  0.77139971  1
  H  H73  1  0.65364201  0.54353113  0.77862223  1
  H  H74  1  0.70326641  0.53943194  0.79141367  1
  H  H75  1  0.73346756  0.56380083  0.84312850  1
  H  H76  1  0.74740891  0.59325623  0.89922855  1
  H  H77  1  0.67737456  0.59713944  0.88148053  1
  H  H78  1  0.66315376  0.56759509  0.82524297  1
  H  H79  1  0.76142547  0.62928242  0.93660359  1
  H  H80  1  0.73521320  0.59643178  0.95790182  1
  H  H81  1  0.69421910  0.57586255  0.04047930  1
  H  H82  1  0.72375587  0.58158653  0.01723435  1
  H  H83  1  0.69488866  0.57529065  0.99112241  1
  H  H84  1  0.76663559  0.66436975  0.92212087  1
  H  H85  1  0.79555367  0.68580403  0.95324680  1
  H  H86  1  0.77377972  0.69555103  0.93946146  1
  H  H87  1  0.71941736  0.66512214  0.09455753  1
  H  H88  1  0.72584080  0.68957432  0.06007822  1
  H  H89  1  0.75463802  0.69393957  0.08354075  1
  H  H90  1  0.77770501  0.71730190  0.03381056  1
  H  H91  1  0.78266510  0.71635983  0.98486393  1
  H  H92  1  0.80137134  0.75540238  0.00610817  1
  H  H93  1  0.82034606  0.80402383  0.00708929  1
  H  H94  1  0.73515820  0.78028243  0.99225577  1
  H  H95  1  0.71582759  0.73000644  0.99047493  1
  H  H96  1  0.77622272  0.83073684  -0.00334854  1
  H  H97  1  0.83312870  0.84190708  0.01783421  1
  H  H98  1  0.69024002  0.62571802  0.08565028  1
  H  H99  1  0.68361716  0.59394363  0.07118964  1
  H  H100  1  0.66383231  0.59405612  0.12536831  1
  H  H101  1  0.63930675  0.56147395  0.17806889  1
  H  H102  1  0.71811334  0.57510969  0.20794224  1
  H  H103  1  0.74266073  0.60871716  0.15632292  1
  H  H104  1  0.63872280  0.53571941  0.23025972  1
  H  H105  1  0.69838263  0.55458448  0.25495572  1
  H  H106  1  0.73499139  0.40019255  0.57799123  1
  H  H107  1  0.73164087  0.39771114  0.44776511  1
  H  H108  1  0.73522821  0.35094549  0.51332078  1
  H  H109  1  0.70079205  0.42386000  0.51322513  1
  H  H110  1  0.85388181  0.37045275  0.77035265  1
  H  H111  1  0.74512177  0.36321726  0.67207320  1
  H  H112  1  0.78079086  0.36887411  0.62175394  1
  H  H113  1  0.78350185  0.36636261  0.69079961  1
  H  H114  1  0.82092686  0.36573906  0.65681108  1
  H  H115  1  0.81704202  0.36697764  0.72637290  1
  H  H116  1  0.85549291  0.36242529  0.70491638  1
  H  H117  1  0.82041177  0.33757818  0.77649053  1
  H  H118  1  0.72166099  0.32757597  0.65829491  1
  H  H119  1  0.75794331  0.33179112  0.61834951  1
  H  H120  1  0.75995743  0.32926464  0.68908344  1
  H  H121  1  0.79733887  0.32845408  0.65729884  1
  H  H122  1  0.79249826  0.32994113  0.72744870  1
  H  H123  1  0.82994822  0.32545281  0.70873888  1
  H  H124  1  0.54984688  0.24413806  0.26353364  1
  H  H125  1  0.63763820  0.34176567  0.41015961  1
  H  H126  1  0.60011071  0.29479823  0.43782269  1
  H  H127  1  0.60152831  0.30310826  0.36826684  1
  H  H128  1  0.55982746  0.25473533  0.38725884  1
  H  H129  1  0.57072967  0.27008478  0.31946502  1
  H  H130  1  0.52567775  0.22195530  0.32848402  1
  H  H131  1  0.55933169  0.22125129  0.26302384  1
  H  H132  1  0.65906012  0.33118145  0.39873511  1
  H  H133  1  0.62153890  0.28371368  0.43097877  1
  H  H134  1  0.62270971  0.29160654  0.36207243  1
  H  H135  1  0.58078642  0.24275520  0.38338063  1
  H  H136  1  0.59042706  0.25678514  0.31594603  1
  H  H137  1  0.54442749  0.20752683  0.32769374  1
  H  H138  1  0.51777718  0.22769751  0.72689677  1
  H  H139  1  0.61788231  0.32680874  0.58352377  1
  H  H140  1  0.64108111  0.32119806  0.63970751  1
  H  H141  1  0.58756866  0.29378129  0.63469191  1
  H  H142  1  0.60721819  0.28590563  0.69130758  1
  H  H143  1  0.55417256  0.26016789  0.68313291  1
  H  H144  1  0.56995065  0.25059317  0.74235644  1
  H  H145  1  0.51463751  0.19858341  0.70803380  1
  H  H146  1  0.61980952  0.30231513  0.55872104  1
  H  H147  1  0.63891765  0.29438027  0.61530314  1
  H  H148  1  0.58525858  0.26654667  0.61099288  1
  H  H149  1  0.60440022  0.25830084  0.66770779  1
  H  H150  1  0.55149004  0.23231512  0.66074588  1
  H  H151  1  0.56629671  0.22208041  0.72018262  1
  H  H152  1  0.63772100  0.50219600  0.27694262  1
  H  H153  1  0.65984637  0.41293029  0.40036861  1
  H  H154  1  0.68974478  0.43559361  0.34300845  1
  H  H155  1  0.65361428  0.44311023  0.36199407  1
  H  H156  1  0.68262605  0.46571082  0.30326332  1
  H  H157  1  0.64473900  0.47089801  0.32225732  1
  H  H158  1  0.67391616  0.49427696  0.26426647  1
  H  H159  1  0.66065804  0.52898005  0.30951580  1
  H  H160  1  0.68502191  0.44324841  0.42708514  1
  H  H161  1  0.71612662  0.46538050  0.36904030  1
  H  H162  1  0.68023556  0.47336392  0.38758996  1
  H  H163  1  0.70828890  0.49610897  0.32930062  1
  H  H164  1  0.67037970  0.50118127  0.34857230  1
  H  H165  1  0.69971852  0.52411073  0.29092999  1
  H  H166  1  0.65940949  0.52881042  0.71524158  1
  H  H167  1  0.68225727  0.43972274  0.59875912  1
  H  H168  1  0.71659602  0.46661582  0.65328881  1
  H  H169  1  0.67821186  0.47143401  0.63760363  1
  H  H170  1  0.70951741  0.49805668  0.69268410  1
  H  H171  1  0.66931440  0.50022032  0.67636370  1
  H  H172  1  0.70026035  0.52719954  0.73163475  1
  H  H173  1  0.63622579  0.49937557  0.74324664  1
  H  H174  1  0.66038642  0.41052868  0.62883947  1
  H  H175  1  0.69270862  0.43807547  0.68268320  1
  H  H176  1  0.65402997  0.44234454  0.66644990  1
  H  H177  1  0.68619426  0.46883278  0.72174025  1
  H  H178  1  0.64593256  0.47081471  0.70515181  1
  H  H179  1  0.67704085  0.49775375  0.76049859  1
  H  H180  1  0.81966223  0.33113069  0.24981180  1
  H  H181  1  0.72119003  0.32606474  0.36985805  1
  H  H182  1  0.75947211  0.33290118  0.40745150  1
  H  H183  1  0.75954500  0.32847314  0.33658217  1
  H  H184  1  0.79815914  0.32970131  0.36806002  1
  H  H185  1  0.79178734  0.32847954  0.29768413  1
  H  H186  1  0.82935396  0.32481333  0.31955439  1
  H  H187  1  0.85167024  0.36554128  0.25310659  1
  H  H188  1  0.74331665  0.36109069  0.35362864  1
  H  H189  1  0.78125003  0.36982796  0.40247068  1
  H  H190  1  0.78238233  0.36552043  0.33341305  1
  H  H191  1  0.82115090  0.36693410  0.36629896  1
  H  H192  1  0.81649311  0.36549764  0.29679949  1
  H  H193  1  0.85483085  0.36185663  0.32006027  1
  H  H194  1  0.99567246  0.08618640  0.97687785  1
  H  H195  1  0.03589973  0.12633434  0.03439903  1
  H  H196  1  0.04444025  0.12684067  0.98647474  1
  H  H197  1  0.96128204  0.06382598  0.02621267  1
  H  H198  1  0.98802042  0.08966057  0.05780393  1
  H  H199  1  0.03556213  0.08784005  0.99624287  1
  H  H200  1  0.02242433  0.08200982  0.04259289  1
  H  H201  1  0.00188466  0.14305878  0.04605859  1
  H  H202  1  0.96276924  0.10012082  0.99029320  1
  H  H203  1  0.95473038  0.10077471  0.03825394  1
  H  H204  1  0.03814270  0.16385163  0.00012990  1
  H  H205  1  0.01271452  0.13885853  0.96675403  1
  H  H206  1  0.95956582  0.13533691  0.00813270  1
  H  H207  1  0.98726419  0.15340992  0.97385231  1
  H  H208  1  0.08984089  0.04046926  0.97613955  1
  H  H209  1  0.07746837  0.99344631  0.02269539  1
  H  H210  1  0.07323926  0.99245827  0.97326468  1
  H  H211  1  0.10172359  0.06678013  0.03233251  1
  H  H212  1  0.09301337  0.03699763  0.05822262  1
  H  H213  1  0.04261869  -0.00219781  0.98559712  1
  H  H214  1  0.04902322  0.00422799  0.03426771  1
  H  H215  1  0.13026570  0.02458038  0.04690961  1
  H  H216  1  0.14158882  0.07122193  1.00057087  1
  H  H217  1  0.14583249  0.07212481  0.05002030  1
  H  H218  1  0.11725392  0.99754081  0.99154771  1
  H  H219  1  0.12601584  0.02698415  0.96481304  1
  H  H220  1  0.17671937  0.06912871  0.03532809  1
  H  H221  1  0.17028067  0.05982259  0.98720714  1
  H  H222  1  0.91774102  0.95231810  0.04514201  1
  H  H223  1  0.91755994  0.90808472  0.00691052  1
  H  H224  1  0.92109310  0.91455820  0.05600295  1
  H  H225  1  0.91596781  0.96739418  0.98376822  1
  H  H226  1  0.91463590  0.93893654  0.96464589  1
  H  H227  1  0.95988702  0.95481691  0.04338230  1
  H  H228  1  0.95606406  0.95110002  -0.00555496  1
  H  H229  1  0.86945602  0.88925137  0.97827066  1
  H  H230  1  0.86909158  0.93276897  0.01715035  1
  H  H231  1  0.86523529  0.92627271  0.96789597  1
  H  H232  1  0.87156694  0.87365825  0.03893868  1
  H  H233  1  0.87152319  0.90095075  0.05913069  1
  H  H234  1  0.82381747  0.88213683  0.98069654  1
  H  H235  1  0.82785029  0.88486282  0.03006890  1
  C  C236  1  0.03029056  0.02140752  0.00872367  1
  C  C237  1  0.03233107  0.04611381  0.00980586  1
  C  C238  1  1.00766818  0.04483268  0.01071438  1
  C  C239  1  0.98032108  0.01831950  0.01271060  1
  C  C240  1  0.97835911  0.99348342  0.01431462  1
  C  C241  1  0.00337818  -0.00388631  0.01225603  1
  C  C242  1  0.85540579  0.33594921  0.77842771  1
  C  C243  1  0.84033202  0.31220701  0.79949768  1
  C  C244  1  0.85063945  0.30627266  0.83191930  1
  C  C245  1  0.83076724  0.28369898  0.85571029  1
  C  C246  1  0.83939316  0.27692871  0.88689501  1
  C  C247  1  0.86847705  0.29281990  0.89546530  1
  C  C248  1  0.88865354  0.31564690  0.87289971  1
  C  C249  1  0.87988442  0.32252863  0.84183860  1
  C  C250  1  0.85808040  0.26450771  0.95050281  1
  C  C251  1  0.87445569  0.26457581  0.98285828  1
  C  C252  1  0.88680315  0.25039926  0.97955544  1
  C  C253  1  0.90393379  0.25237714  0.00898528  1
  C  C254  1  0.90807377  0.26789206  0.04177341  1
  C  C255  1  0.89599422  0.28233813  0.04440229  1
  C  C256  1  0.87878201  0.28047601  0.01521306  1
  C  C257  1  0.86491611  0.29488598  0.01662074  1
  C  C258  1  0.87970625  0.23178361  0.94634766  1
  C  C259  1  0.92550731  0.26813311  0.07252173  1
  C  C260  1  0.91624192  0.23635228  0.00736856  1
  C  C261  1  0.96024335  0.24180628  1.00099944  1
  C  C262  1  0.94515440  0.21283425  0.00576247  1
  C  C263  1  0.95963948  0.20108486  0.00659725  1
  C  C264  1  0.98967633  0.21755701  0.00368379  1
  C  C265  1  0.00426896  0.24669964  0.99644293  1
  C  C266  1  0.98987875  0.25857223  0.99537514  1
  C  C267  1  0.00359102  0.20392064  0.00541036  1
  C  C268  1  0.99162681  0.17842724  0.02254126  1
  C  C269  1  0.90186030  0.30022246  0.07830034  1
  C  C270  1  0.88073785  0.29841547  0.13668143  1
  C  C271  1  0.90310844  0.32698540  0.14236960  1
  C  C272  1  0.90168575  0.34142356  0.17162672  1
  C  C273  1  0.87832583  0.32782328  0.19667668  1
  C  C274  1  0.85646464  0.29866741  0.19107040  1
  C  C275  1  0.85794035  0.28405501  0.16197154  1
  C  C276  1  0.87620419  0.34358702  0.22559137  1
  C  C277  1  0.85581865  0.33201302  0.25268123  1
  C  C278  1  0.51440638  0.20167219  0.25535874  1
  C  C279  1  0.50940295  0.18207534  0.22996333  1
  C  C280  1  0.48976802  0.17154673  0.19826495  1
  C  C281  1  0.48372785  0.14888424  0.17589192  1
  C  C282  1  0.46637809  0.13960798  0.14431740  1
  C  C283  1  0.45443951  0.15294004  0.13356989  1
  C  C284  1  0.45931236  0.17482353  0.15582008  1
  C  C285  1  0.47690241  0.18418273  0.18719267  1
  C  C286  1  0.43298636  0.12526209  0.07559677  1
  C  C287  1  0.41620858  0.12428110  0.04277431  1
  C  C288  1  0.38607750  0.10775321  0.04536208  1
  C  C289  1  0.37055513  0.10742736  0.01509956  1
  C  C290  1  0.38461789  0.12407717  0.98287235  1
  C  C291  1  0.41467320  0.14006541  0.98012152  1
  C  C292  1  0.43046463  0.13992055  0.00983680  1
  C  C293  1  0.46230690  0.15601609  0.00804759  1
  C  C294  1  0.37032397  0.08906508  0.07839834  1
  C  C295  1  0.36627198  0.12387273  0.95353158  1
  C  C296  1  0.33849039  0.08988874  0.01697492  1
  C  C297  1  0.30218849  0.09617388  0.02549919  1
  C  C298  1  0.28070355  0.06724908  0.02078068  1
  C  C299  1  0.25211147  0.05672288  0.01921872  1
  C  C300  1  0.24445295  0.07489756  0.02262500  1
  C  C301  1  0.26666567  0.10376747  0.02989753  1
  C  C302  1  0.29507396  0.11434560  0.03117663  1
  C  C303  1  0.21620802  0.06789833  0.01713808  1
  C  C304  1  0.18863802  0.04394994  0.01822179  1
  C  C305  1  0.42973855  0.15815319  0.94595367  1
  C  C306  1  0.44868674  0.15819246  0.88603686  1
  C  C307  1  0.45850911  0.18583355  0.88000867  1
  C  C308  1  0.47680154  0.20116554  0.85032193  1
  C  C309  1  0.48572257  0.18963828  0.82501549  1
  C  C310  1  0.47379301  0.16093160  0.83017993  1
  C  C311  1  0.45538174  0.14544067  0.85997438  1
  C  C312  1  0.50517873  0.20733118  0.79461123  1
  C  C313  1  0.51613771  0.20045174  0.76736775  1
  C  C314  1  0.66696975  0.53673082  0.77363256  1
  C  C315  1  0.68935133  0.54547590  0.79677254  1
  C  C316  1  0.69713343  0.56302344  0.82966685  1
  C  C317  1  0.72092476  0.57085410  0.85153833  1
  C  C318  1  0.72868776  0.58729192  0.88339442  1
  C  C319  1  0.71262283  0.59634132  0.89431328  1
  C  C320  1  0.68940033  0.58954241  0.87288311  1
  C  C321  1  0.68158141  0.57293277  0.84114333  1
  C  C322  1  0.74049477  0.61699277  0.95073474  1
  C  C323  1  0.74017214  0.63240483  0.98363677  1
  C  C324  1  0.75438021  0.66162284  0.98023720  1
  C  C325  1  0.75180851  0.67573107  0.00960271  1
  C  C326  1  0.73468595  0.66112282  0.04129280  1
  C  C327  1  0.71941937  0.63167077  0.04298545  1
  C  C328  1  0.72270085  0.61715447  0.01487803  1
  C  C329  1  0.70813218  0.58605366  0.01614000  1
  C  C330  1  0.77332567  0.67753477  0.94723162  1
  C  C331  1  0.73340015  0.67801654  0.07129797  1
  C  C332  1  0.76674065  0.70668691  0.00736459  1
  C  C333  1  0.75708567  0.73941726  0.99936080  1
  C  C334  1  0.78645368  0.76040349  0.00360396  1
  C  C335  1  0.79731311  0.78843138  0.00413921  1
  C  C336  1  0.77925090  0.79646559  0.00039694  1
  C  C337  1  0.74957657  0.77471132  0.99541699  1
  C  C338  1  0.73862256  0.74655077  0.99464623  1
  C  C339  1  0.79124156  0.82597206  0.00102414  1
  C  C340  1  0.81948338  0.84694978  0.00685979  1
  C  C341  1  0.70072296  0.61642949  0.07629039  1
  C  C342  1  0.70445831  0.60200349  0.13634591  1
  C  C343  1  0.67556892  0.58943612  0.14296446  1
  C  C344  1  0.66187311  0.57149267  0.17310703  1
  C  C345  1  0.67649645  0.56570115  0.19752130  1
  C  C346  1  0.70597638  0.57938181  0.19065759  1
  C  C347  1  0.71991495  0.59795400  0.16107398  1
  C  C348  1  0.66170892  0.54633242  0.22838622  1
  C  C349  1  0.67503965  0.54103664  0.25363272  1
  C  C350  1  0.72556941  0.35593670  0.61977580  1
  C  C351  1  0.69781555  0.41776902  0.41024151  1
  C  C352  1  0.70039024  0.41924592  0.61724673  1
  C  C353  1  0.72557854  0.35558322  0.40715298  1
  C  C354  1  0.66006281  0.34157100  0.56841248  1
  C  C355  1  0.66112722  0.34122578  0.45486062  1
  C  C356  1  0.84132452  0.34800889  0.76235882  1
  C  C357  1  0.73931412  0.34883313  0.64847778  1
  C  C358  1  0.76466144  0.34947568  0.63706575  1
  C  C359  1  0.77734530  0.34804969  0.67357442  1
  C  C360  1  0.80299356  0.34741256  0.67214378  1
  C  C361  1  0.81160865  0.34765833  0.71266995  1
  C  C362  1  0.83593037  0.34565036  0.71967247  1
  C  C363  1  0.54304794  0.22334490  0.27356145  1
  C  C364  1  0.64343807  0.32830217  0.41903462  1
  C  C365  1  0.61666784  0.29741983  0.41945037  1
  C  C366  1  0.60529187  0.28835493  0.37919623  1
  C  C367  1  0.57806607  0.25815494  0.37222354  1
  C  C368  1  0.57180368  0.25338075  0.32990741  1
  C  C369  1  0.54464963  0.22488122  0.31681274  1
  C  C370  1  0.52570085  0.21510185  0.72983362  1
  C  C371  1  0.62965272  0.31802476  0.58139440  1
  C  C372  1  0.62849822  0.30458374  0.61843360  1
  C  C373  1  0.59770471  0.28319126  0.63230857  1
  C  C374  1  0.59481006  0.26938849  0.66989155  1
  C  C375  1  0.56346123  0.24873387  0.68243966  1
  C  C376  1  0.55806988  0.23443264  0.72041521  1
  C  C377  1  0.66042693  0.51899498  0.28317287  1
  C  C378  1  0.68268211  0.43093000  0.40261160  1
  C  C379  1  0.69291580  0.44833011  0.36760571  1
  C  C380  1  0.67679004  0.46049210  0.36286225  1
  C  C381  1  0.68530305  0.47816355  0.32808790  1
  C  C382  1  0.66771070  0.48880536  0.32365057  1
  C  C383  1  0.67660133  0.50673015  0.28909539  1
  C  C384  1  0.65887379  0.51799034  0.74058315  1
  C  C385  1  0.68237345  0.42957526  0.62401138  1
  C  C386  1  0.69377797  0.44900708  0.65730180  1
  C  C387  1  0.67686799  0.46022813  0.66297947  1
  C  C388  1  0.68690140  0.47970295  0.69638572  1
  C  C389  1  0.66851232  0.48937836  0.70181975  1
  C  C390  1  0.67772766  0.50868580  0.73524872  1
  C  C391  1  0.84067895  0.34406799  0.26426225  1
  C  C392  1  0.73877136  0.34788549  0.37805251  1
  C  C393  1  0.76505736  0.34983371  0.38816908  1
  C  C394  1  0.77702105  0.34782976  0.35118863  1
  C  C395  1  0.80305739  0.34788950  0.35209350  1
  C  C396  1  0.81102863  0.34665982  0.31173526  1
  C  C397  1  0.83515532  0.34423157  0.30620477  1
  C  C398  1  0.02767933  0.12256824  0.00570966  1
  C  C399  1  0.97989437  0.08600631  0.02911314  1
  C  C400  1  0.01577598  0.07520189  0.01315207  1
  C  C401  1  0.97129065  0.10466781  0.01891022  1
  C  C402  1  0.01960729  0.14175141  0.99598393  1
  C  C403  1  0.98281008  0.15130632  0.00392333  1
  C  C404  1  0.08660887  0.00581227  -0.00312432  1
  C  C405  1  0.10234004  0.04876332  0.03209586  1
  C  C406  1  0.05189963  0.01469032  0.00713188  1
  C  C407  1  0.13251240  0.05880037  0.02638366  1
  C  C408  1  0.11683748  0.01567815  0.99126284  1
  C  C409  1  0.16792998  0.05122303  0.01563565  1
  C  C410  1  0.91074377  0.91460443  0.03054981  1
  C  C411  1  0.90784426  0.94552012  0.98818627  1
  C  C412  1  0.95411958  0.96161208  0.01861743  1
  C  C413  1  0.87574488  0.92637320  0.99322781  1
  C  C414  1  0.87872745  0.89525506  0.03507854  1
  C  C415  1  0.83216484  0.87754172  0.00450933  1
  N  N416  1  0.00331110  0.09132216  0.00383393  1
  N  N417  1  0.99500454  0.13626214  0.01910152  1
  N  N418  1  0.08355817  0.02927477  0.00074881  1
  N  N419  1  0.13604375  0.03566455  0.02226203  1
  N  N420  1  0.92225681  0.94479069  0.02256412  1
  N  N421  1  0.86431706  0.89632355  0.00084815  1
  O  O422  1  0.87861601  0.28703160  0.92499775  1
  O  O423  1  0.88051237  0.28369907  0.10734113  1
  O  O424  1  0.94729451  0.25456420  1.00145517  1
  O  O425  1  0.43723678  0.14564271  0.10319552  1
  O  O426  1  0.43218433  0.14287828  0.91611681  1
  O  O427  1  0.33060511  0.10828630  0.02513578  1
  O  O428  1  0.71893873  0.61259143  0.92498058  1
  O  O429  1  0.71862967  0.61880219  0.10637501  1
  O  O430  1  0.74585327  0.71173734  0.99990979  1
  O  O431  1  0.66595820  0.36568778  0.56530830  1
  O  O432  1  0.72857884  0.35146467  0.58537182  1
  O  O433  1  0.71201681  0.36422814  0.63176461  1
  O  O434  1  0.70129375  0.41660254  0.44522473  1
  O  O435  1  0.70485205  0.41080756  0.38257031  1
  O  O436  1  0.67434144  0.33206499  0.46666865  1
  O  O437  1  0.67626741  0.33474681  0.56162002  1
  O  O438  1  0.70729559  0.42117636  0.58276815  1
  O  O439  1  0.70641405  0.41177964  0.64519064  1
  O  O440  1  0.72753142  0.35023080  0.44142960  1
  O  O441  1  0.71311470  0.36504371  0.39533250  1
  O  O442  1  0.66283304  0.36192041  0.46831555  1
  O  O443  1  0.72156372  0.38922546  0.55788506  1
  O  O444  1  0.71904051  0.38717860  0.46873771  1
  O  O445  1  0.71862504  0.35072718  0.51357249  1
  O  O446  1  0.69643529  0.40539605  0.51424691  1
