# generated using pymatgen
data_Be4PH139C210(N6O13)2
_symmetry_space_group_name_H-M   'P 1'
_cell_length_a   66.88701875
_cell_length_b   68.81759556
_cell_length_c   37.34432557
_cell_angle_alpha   90.07249240
_cell_angle_beta   90.26809855
_cell_angle_gamma   125.69009396
_symmetry_Int_Tables_number   1
_chemical_formula_structural   Be4PH139C210(N6O13)2
_chemical_formula_sum   'Be4 P1 H139 C210 N12 O26'
_cell_volume   139608.09207878
_cell_formula_units_Z   1
loop_
 _symmetry_equiv_pos_site_id
 _symmetry_equiv_pos_as_xyz
  1  'x, y, z'
loop_
 _atom_site_type_symbol
 _atom_site_label
 _atom_site_symmetry_multiplicity
 _atom_site_fract_x
 _atom_site_fract_y
 _atom_site_fract_z
 _atom_site_occupancy
  Be  Be0  1  0.69704502  0.37546728  0.53972672  1
  Be  Be1  1  0.67749560  0.40191340  0.46182251  1
  Be  Be2  1  0.67829328  0.40222880  0.54115109  1
  Be  Be3  1  0.69759884  0.37618760  0.46260915  1
  P  P4  1  0.00526861  0.04123403  0.95063176  1
  H  H5  1  0.98702896  0.99447019  0.92428603  1
  H  H6  1  0.95497310  0.95339198  0.94712254  1
  H  H7  1  0.94664005  0.98361811  0.04159278  1
  H  H8  1  0.97921018  0.02467753  0.01999467  1
  H  H9  1  0.05294023  0.06964252  0.92080926  1
  H  H10  1  0.09443400  0.08279658  0.94264039  1
  H  H11  1  0.06282162  0.04533374  0.04134112  1
  H  H12  1  0.02128039  0.03183553  0.01998679  1
  H  H13  1  0.96474704  0.04297573  0.93390294  1
  H  H14  1  0.95161547  0.06812731  0.95577031  1
  H  H15  1  0.01125860  0.10220796  0.03151004  1
  H  H16  1  0.02521179  0.07802726  0.00917931  1
  H  H17  1  0.84953023  0.36882256  0.77939483  1
  H  H18  1  0.79559271  0.32614834  0.79638106  1
  H  H19  1  0.78784264  0.30119510  0.84550909  1
  H  H20  1  0.80153430  0.28948631  0.89701969  1
  H  H21  1  0.87694098  0.34873751  0.87674735  1
  H  H22  1  0.86333369  0.36033685  0.82431841  1
  H  H23  1  0.81985732  0.27762029  0.92787234  1
  H  H24  1  0.81697332  0.29857926  0.95024268  1
  H  H25  1  0.84208639  0.33393497  0.02782367  1
  H  H26  1  0.81575066  0.30910731  0.00700424  1
  H  H27  1  0.84012288  0.33214435  0.98072797  1
  H  H28  1  0.84514678  0.27230410  0.91534005  1
  H  H29  1  0.83411382  0.24770531  0.94423686  1
  H  H30  1  0.86557582  0.26630502  0.93212687  1
  H  H31  1  0.89224751  0.30959295  0.08248332  1
  H  H32  1  0.90740150  0.30373169  0.04986069  1
  H  H33  1  0.88101239  0.27992099  0.07187228  1
  H  H34  1  0.87850276  0.26067052  0.02402247  1
  H  H35  1  0.87201330  0.25594916  0.97734589  1
  H  H36  1  0.88720366  0.23879460  0.99764196  1
  H  H37  1  0.90993775  0.22156768  0.00033027  1
  H  H38  1  0.97801309  0.29162494  0.98343699  1
  H  H39  1  0.95438917  0.30891615  0.98088198  1
  H  H40  1  0.97941413  0.25584123  0.99018543  1
  H  H41  1  0.92873046  0.20851227  0.00710155  1
  H  H42  1  0.88748822  0.33479586  0.07393505  1
  H  H43  1  0.86543373  0.33952902  0.05982220  1
  H  H44  1  0.88532732  0.35763458  0.10962160  1
  H  H45  1  0.88037616  0.37928482  0.15694908  1
  H  H46  1  0.81245983  0.31280014  0.18934966  1
  H  H47  1  0.81788190  0.29150955  0.14186978  1
  H  H48  1  0.85618893  0.37997977  0.20675991  1
  H  H49  1  0.81233087  0.32923307  0.23016500  1
  H  H50  1  0.51808323  0.24290578  0.22755740  1
  H  H51  1  0.53188943  0.20718646  0.21947874  1
  H  H52  1  0.51098217  0.17821647  0.16933614  1
  H  H53  1  0.48499703  0.16349243  0.11553314  1
  H  H54  1  0.47120488  0.21687464  0.12950805  1
  H  H55  1  0.49737840  0.23204228  0.18330503  1
  H  H56  1  0.45176843  0.14860158  0.07480136  1
  H  H57  1  0.47965767  0.17232690  0.05541658  1
  H  H58  1  0.49384688  0.20585280  0.97544036  1
  H  H59  1  0.49238985  0.18202780  0.99608415  1
  H  H60  1  0.49434232  0.20446192  0.02259285  1
  H  H61  1  0.41894272  0.14177687  0.08847597  1
  H  H62  1  0.40175840  0.11690534  0.05913569  1
  H  H63  1  0.39060364  0.13381397  0.07128693  1
  H  H64  1  0.41262081  0.17744080  0.92253569  1
  H  H65  1  0.39096499  0.17069096  0.95630941  1
  H  H66  1  0.38925674  0.14746700  0.93284125  1
  H  H67  1  0.37004559  0.12828353  0.98057801  1
  H  H68  1  0.37168655  0.12330269  0.02682486  1
  H  H69  1  0.33591271  0.10708476  0.00801474  1
  H  H70  1  0.29261376  0.09142947  0.00252872  1
  H  H71  1  0.31137171  0.16242516  0.02086507  1
  H  H72  1  0.35566716  0.17852569  0.02416360  1
  H  H73  1  0.26873637  0.12965489  0.01232289  1
  H  H74  1  0.25552245  0.07868451  -0.00113619  1
  H  H75  1  0.44652927  0.20207742  0.92918449  1
  H  H76  1  0.47560531  0.20999778  0.94303784  1
  H  H77  1  0.47224573  0.22574962  0.89125855  1
  H  H78  1  0.50058295  0.24947021  0.84255326  1
  H  H79  1  0.49825459  0.18827555  0.80757028  1
  H  H80  1  0.47013567  0.16474196  0.85732124  1
  H  H81  1  0.52386072  0.25482823  0.79295030  1
  H  H82  1  0.52497328  0.21330589  0.76370487  1
  H  H83  1  0.64264637  0.53699363  0.77177858  1
  H  H84  1  0.68685169  0.53589848  0.79431043  1
  H  H85  1  0.71061080  0.55601413  0.84322314  1
  H  H86  1  0.72176235  0.58166825  0.89620368  1
  H  H87  1  0.66152088  0.58678709  0.87411260  1
  H  H88  1  0.65027324  0.56112745  0.82029287  1
  H  H89  1  0.73291290  0.61049040  0.93007946  1
  H  H90  1  0.70972352  0.58273513  0.94973395  1
  H  H91  1  0.67404114  0.56635890  0.02826220  1
  H  H92  1  0.69942144  0.56953886  0.00752956  1
  H  H93  1  0.67568017  0.56645747  0.98108367  1
  H  H94  1  0.73743138  0.64066480  0.91590181  1
  H  H95  1  0.76312487  0.65843532  0.94475642  1
  H  H96  1  0.74431322  0.66773513  0.93259178  1
  H  H97  1  0.69847526  0.64416369  0.08107101  1
  H  H98  1  0.70422595  0.66494837  0.04733312  1
  H  H99  1  0.72890272  0.66788943  0.07061152  1
  H  H100  1  0.74768178  0.68729238  0.02249509  1
  H  H101  1  0.75275881  0.68556882  0.97616480  1
  H  H102  1  0.76803027  0.71815926  0.99306862  1
  H  H103  1  0.78460556  0.75975378  0.99702151  1
  H  H104  1  0.71115527  0.74235202  0.98280378  1
  H  H105  1  0.69444118  0.69936005  0.97916724  1
  H  H106  1  0.75032936  0.78735515  0.98966871  1
  H  H107  1  0.79563335  0.78808961  0.01210638  1
  H  H108  1  0.67252333  0.61036536  0.07185308  1
  H  H109  1  0.66778941  0.58302790  0.06058067  1
  H  H110  1  0.65080445  0.58495791  0.11325780  1
  H  H111  1  0.62990924  0.55635016  0.16249386  1
  H  H112  1  0.69823209  0.56513307  0.18831467  1
  H  H113  1  0.71898625  0.59508987  0.14061992  1
  H  H114  1  0.63091522  0.53129457  0.21233080  1
  H  H115  1  0.68474302  0.55081576  0.23160787  1
  H  H116  1  0.70855840  0.40749454  0.57162416  1
  H  H117  1  0.70810722  0.40817141  0.43156312  1
  H  H118  1  0.71822022  0.37096377  0.50141117  1
  H  H119  1  0.68148721  0.42651840  0.50159971  1
  H  H120  1  0.77659519  0.36459352  0.61251162  1
  H  H121  1  0.74029514  0.36373087  0.70807407  1
  H  H122  1  0.71097350  0.36633303  0.67091765  1
  H  H123  1  0.74678517  0.36633841  0.57533227  1
  H  H124  1  0.57853660  0.31748056  0.37538883  1
  H  H125  1  0.62468619  0.29319392  0.36549701  1
  H  H126  1  0.65267509  0.32233923  0.41185901  1
  H  H127  1  0.60680166  0.34689294  0.42122758  1
  H  H128  1  0.60621525  0.33536501  0.66327528  1
  H  H129  1  0.59772616  0.27830156  0.60116106  1
  H  H130  1  0.62605551  0.30753097  0.55570470  1
  H  H131  1  0.63388216  0.36452132  0.61711592  1
  H  H132  1  0.70743972  0.48809107  0.32614824  1
  H  H133  1  0.63206899  0.44486421  0.36080265  1
  H  H134  1  0.64082647  0.42110970  0.39907656  1
  H  H135  1  0.71577073  0.46328764  0.36210035  1
  H  H136  1  0.70916504  0.49135748  0.66898089  1
  H  H137  1  0.63138683  0.44088988  0.64917970  1
  H  H138  1  0.63965921  0.41675346  0.61069946  1
  H  H139  1  0.71705347  0.46564332  0.63408529  1
  H  H140  1  0.73930927  0.36189709  0.29533074  1
  H  H141  1  0.77831154  0.36636212  0.39066959  1
  H  H142  1  0.74849909  0.36780288  0.42786689  1
  H  H143  1  0.70998670  0.36416435  0.33249199  1
  C  C144  1  0.98336058  0.01178684  0.96955154  1
  C  C145  1  0.97787593  0.99190363  0.94962414  1
  C  C146  1  0.95988008  0.96930490  0.96188754  1
  C  C147  1  0.94675084  0.96634733  0.99339099  1
  C  C148  1  0.95510780  0.98632712  0.01549872  1
  C  C149  1  0.97334454  0.00905247  0.00376576  1
  C  C150  1  0.03475331  0.05031873  0.96923111  1
  C  C151  1  0.05529640  0.06461729  0.94722983  1
  C  C152  1  0.07809571  0.07126027  0.95889984  1
  C  C153  1  0.08075387  0.06280660  0.99178714  1
  C  C154  1  0.06034509  0.05011487  0.01470176  1
  C  C155  1  0.03736324  0.04331938  0.00337494  1
  C  C156  1  0.99654561  0.05984073  0.96883541  1
  C  C157  1  0.97518043  0.05636782  0.95468664  1
  C  C158  1  0.96826716  0.07075652  0.96628122  1
  C  C159  1  0.98265419  0.08935616  0.99142133  1
  C  C160  1  0.00188465  0.09012118  0.00882054  1
  C  C161  1  0.00924149  0.07602302  0.99724867  1
  C  C162  1  0.82947616  0.35663040  0.77759402  1
  C  C163  1  0.81544009  0.33757853  0.80117524  1
  C  C164  1  0.82434679  0.33163745  0.83088094  1
  C  C165  1  0.80736696  0.31163713  0.85235891  1
  C  C166  1  0.81505837  0.30525579  0.88160231  1
  C  C167  1  0.84011012  0.31891840  0.89053523  1
  C  C168  1  0.85746261  0.33852583  0.86962353  1
  C  C169  1  0.84974815  0.34491485  0.84025175  1
  C  C170  1  0.83019943  0.29466488  0.94281157  1
  C  C171  1  0.84379468  0.29417057  0.97443871  1
  C  C172  1  0.85475915  0.28182904  0.97149030  1
  C  C173  1  0.86948235  0.28329436  1.00009733  1
  C  C174  1  0.87340644  0.29713965  0.03096421  1
  C  C175  1  0.86298961  0.31005515  0.03273481  1
  C  C176  1  0.84777819  0.30843579  0.00476530  1
  C  C177  1  0.83597481  0.32153486  0.00521704  1
  C  C178  1  0.84975883  0.26644145  0.93929715  1
  C  C179  1  0.88926320  0.29778607  0.06024119  1
  C  C180  1  0.88077382  0.26973566  0.99842338  1
  C  C181  1  0.91937864  0.27527585  0.99066088  1
  C  C182  1  0.90717871  0.25069725  0.99527987  1
  C  C183  1  0.92032445  0.24082881  0.99642149  1
  C  C184  1  0.94626516  0.25497250  0.99256438  1
  C  C185  1  0.95809298  0.27991461  0.98684753  1
  C  C186  1  0.94492581  0.28980794  0.98566069  1
  C  C187  1  0.95951715  0.24423061  0.99382807  1
  C  C188  1  0.94827221  0.22007124  -0.00001245  1
  C  C189  1  0.86823741  0.32554859  0.06492506  1
  C  C190  1  0.85097476  0.32338843  0.12150502  1
  C  C191  1  0.86902463  0.34796331  0.12645555  1
  C  C192  1  0.86649817  0.36007702  0.15364441  1
  C  C193  1  0.84611194  0.34804838  0.17724998  1
  C  C194  1  0.82863147  0.32291095  0.17231448  1
  C  C195  1  0.83137020  0.31077725  0.14530557  1
  C  C196  1  0.84292490  0.36060660  0.20452267  1
  C  C197  1  0.82351968  0.34884413  0.22864309  1
  C  C198  1  0.52836196  0.23529695  0.23311915  1
  C  C199  1  0.52336920  0.21612945  0.21203840  1
  C  C200  1  0.50728657  0.20697380  0.18096069  1
  C  C201  1  0.50273362  0.18720978  0.16065178  1
  C  C202  1  0.48805617  0.17884700  0.12992213  1
  C  C203  1  0.47714376  0.18992599  0.11793860  1
  C  C204  1  0.48029582  0.20868024  0.13815576  1
  C  C205  1  0.49514172  0.21715722  0.16871500  1
  C  C206  1  0.46087957  0.16632576  0.06218413  1
  C  C207  1  0.44633395  0.16521126  0.03012934  1
  C  C208  1  0.42036774  0.15102564  0.03248410  1
  C  C209  1  0.40671597  0.15112295  0.00365156  1
  C  C210  1  0.41841867  0.16533592  0.97288665  1
  C  C211  1  0.44434647  0.17909975  0.97052478  1
  C  C212  1  0.45840161  0.17905995  0.99906160  1
  C  C213  1  0.48599365  0.19357265  0.99813173  1
  C  C214  1  0.40735873  0.13526178  0.06433064  1
  C  C215  1  0.40224269  0.16535582  0.94476805  1
  C  C216  1  0.37926884  0.13717143  0.00611544  1
  C  C217  1  0.34856976  0.14401527  0.01482773  1
  C  C218  1  0.33079627  0.11946635  0.00976332  1
  C  C219  1  0.30614982  0.11050872  0.00747163  1
  C  C220  1  0.29845366  0.12572831  0.01122862  1
  C  C221  1  0.31693386  0.15046950  0.01763010  1
  C  C222  1  0.34162489  0.15950080  0.01944859  1
  C  C223  1  0.27305994  0.11673358  0.00896519  1
  C  C224  1  0.25336228  0.09308243  0.00293086  1
  C  C225  1  0.45651509  0.19461807  0.93790819  1
  C  C226  1  0.47094055  0.19418861  0.87926784  1
  C  C227  1  0.47868428  0.21772229  0.87392888  1
  C  C228  1  0.49418404  0.23093451  0.84568368  1
  C  C229  1  0.50218283  0.22124754  0.82082215  1
  C  C230  1  0.49291516  0.19683561  0.82587727  1
  C  C231  1  0.47722452  0.18349655  0.85417321  1
  C  C232  1  0.51866960  0.23656441  0.79252133  1
  C  C233  1  0.52874238  0.23107877  0.76509618  1
  C  C234  1  0.65602633  0.53274763  0.77160758  1
  C  C235  1  0.67456247  0.54135814  0.79748221  1
  C  C236  1  0.67957765  0.55635796  0.82768828  1
  C  C237  1  0.69976747  0.56265528  0.85004356  1
  C  C238  1  0.70582781  0.57680818  0.88008062  1
  C  C239  1  0.69162506  0.58497685  0.88895790  1
  C  C240  1  0.67199980  0.57977101  0.86703803  1
  C  C241  1  0.66584587  0.56546369  0.83686642  1
  C  C242  1  0.71491216  0.60074275  0.94347679  1
  C  C243  1  0.71529877  0.61412428  0.97533346  1
  C  C244  1  0.72812626  0.63911131  0.97206528  1
  C  C245  1  0.72623452  0.65159910  1.00015617  1
  C  C246  1  0.71156733  0.63963412  0.03054154  1
  C  C247  1  0.69810765  0.61449145  0.03238587  1
  C  C248  1  0.70023234  0.60149883  0.00520479  1
  C  C249  1  0.68668312  0.57477004  0.00570456  1
  C  C250  1  0.74388344  0.65204449  0.93989910  1
  C  C251  1  0.71058973  0.65466124  0.05877518  1
  C  C252  1  0.73870396  0.67786948  0.99712511  1
  C  C253  1  0.72992915  0.70597852  0.98775247  1
  C  C254  1  0.75526763  0.72313649  0.99199014  1
  C  C255  1  0.76470385  0.74705186  0.99411118  1
  C  C256  1  0.74921061  0.75478370  0.99145651  1
  C  C257  1  0.72354798  0.73699327  0.98560557  1
  C  C258  1  0.71408018  0.71290420  0.98365097  1
  C  C259  1  0.76080815  0.77995767  0.99365830  1
  C  C260  1  0.78578537  0.79511584  1.00117809  1
  C  C261  1  0.68209448  0.60225444  0.06443465  1
  C  C262  1  0.68582612  0.59045266  0.12262986  1
  C  C263  1  0.66094475  0.58017585  0.12941916  1
  C  C264  1  0.64932796  0.56436593  0.15761697  1
  C  C265  1  0.66220753  0.55831031  0.18000580  1
  C  C266  1  0.68764926  0.56973827  0.17296109  1
  C  C267  1  0.69941097  0.58623203  0.14553130  1
  C  C268  1  0.65068436  0.54108960  0.20814837  1
  C  C269  1  0.66467756  0.53729005  0.23087375  1
  C  C270  1  0.70995389  0.36994000  0.60000248  1
  C  C271  1  0.68368598  0.42437049  0.40291770  1
  C  C272  1  0.68393900  0.42370821  0.60061395  1
  C  C273  1  0.71072072  0.37022958  0.40294730  1
  C  C274  1  0.65149202  0.35669686  0.55782255  1
  C  C275  1  0.65141445  0.35643239  0.44458196  1
  C  C276  1  0.76218791  0.36511261  0.62495031  1
  C  C277  1  0.76103758  0.36489430  0.66283400  1
  C  C278  1  0.74177797  0.36478160  0.67897633  1
  C  C279  1  0.72554087  0.36618897  0.65841590  1
  C  C280  1  0.81827224  0.36059824  0.75082590  1
  C  C281  1  0.74567012  0.36619092  0.60438742  1
  C  C282  1  0.77807535  0.36455217  0.68413514  1
  C  C283  1  0.79228228  0.36416249  0.70446476  1
  C  C284  1  0.80713172  0.36343082  0.72743447  1
  C  C285  1  0.72768563  0.36748502  0.62108526  1
  C  C286  1  0.59512326  0.31887128  0.38280550  1
  C  C287  1  0.59971189  0.30341977  0.36550801  1
  C  C288  1  0.62088173  0.30513479  0.37765124  1
  C  C289  1  0.63655030  0.32146130  0.40355484  1
  C  C290  1  0.54491366  0.24570887  0.26130508  1
  C  C291  1  0.61110282  0.33552062  0.40844265  1
  C  C292  1  0.58462652  0.28712360  0.33814753  1
  C  C293  1  0.57201016  0.27328139  0.31352700  1
  C  C294  1  0.55829022  0.25833538  0.28664369  1
  C  C295  1  0.63255371  0.33761597  0.41849913  1
  C  C296  1  0.61062856  0.32935437  0.63951017  1
  C  C297  1  0.60011615  0.30449684  0.63653463  1
  C  C298  1  0.60603089  0.29730009  0.60503401  1
  C  C299  1  0.62206260  0.31374576  0.57961050  1
  C  C300  1  0.54372403  0.24723206  0.73887909  1
  C  C301  1  0.62601100  0.34562020  0.61364166  1
  C  C302  1  0.58470813  0.28839844  0.66352344  1
  C  C303  1  0.57145494  0.27506656  0.68788160  1
  C  C304  1  0.55703490  0.26058724  0.71440488  1
  C  C305  1  0.63255061  0.33817759  0.58377746  1
  C  C306  1  0.69277655  0.47300883  0.34156315  1
  C  C307  1  0.66886628  0.46778767  0.33993440  1
  C  C308  1  0.65038953  0.44877599  0.36150401  1
  C  C309  1  0.65528724  0.43553489  0.38268383  1
  C  C310  1  0.65574174  0.51841753  0.25376924  1
  C  C311  1  0.69738203  0.45911919  0.36159202  1
  C  C312  1  0.66332830  0.48063753  0.31808762  1
  C  C313  1  0.65905585  0.49193420  0.29794786  1
  C  C314  1  0.65560287  0.50474412  0.27542785  1
  C  C315  1  0.67861842  0.44019063  0.38200501  1
  C  C316  1  0.69398281  0.47465774  0.65687816  1
  C  C317  1  0.66963083  0.46770631  0.66207433  1
  C  C318  1  0.65013026  0.44631267  0.64519357  1
  C  C319  1  0.65469780  0.43276937  0.62423788  1
  C  C320  1  0.65426553  0.51841809  0.74453840  1
  C  C321  1  0.69837290  0.46039563  0.63749893  1
  C  C322  1  0.66470512  0.48135105  0.68302198  1
  C  C323  1  0.66055073  0.49315091  0.70207120  1
  C  C324  1  0.65606655  0.50597219  0.72281385  1
  C  C325  1  0.67876108  0.43946162  0.62132400  1
  C  C326  1  0.74146902  0.36380631  0.32435412  1
  C  C327  1  0.76171728  0.36540634  0.34033588  1
  C  C328  1  0.76343011  0.36620148  0.37821868  1
  C  C329  1  0.74687488  0.36707603  0.39882282  1
  C  C330  1  0.81743979  0.35997785  0.25187984  1
  C  C331  1  0.72520431  0.36498822  0.34491819  1
  C  C332  1  0.77887767  0.36574824  0.31858833  1
  C  C333  1  0.79295235  0.36563592  0.29778105  1
  C  C334  1  0.80704775  0.36443954  0.27414731  1
  C  C335  1  0.72825960  0.36750753  0.38214267  1
  C  C336  1  0.97142062  0.14095373  0.00184129  1
  C  C337  1  0.96644831  0.17413632  0.00093062  1
  C  C338  1  0.97457905  0.12231619  0.00089844  1
  C  C339  1  0.97764129  0.10644092  -0.00176868  1
  C  C340  1  0.96350905  0.19294948  -0.00020978  1
  C  C341  1  0.95975031  0.20845012  -0.00096809  1
  C  C342  1  0.14640337  0.07340552  0.00271870  1
  C  C343  1  0.18620081  0.07897894  0.00157314  1
  C  C344  1  0.12352644  0.07008434  0.00272453  1
  C  C345  1  0.10359932  0.06702047  0.00041707  1
  C  C346  1  0.20898213  0.08227028  0.00120697  1
  C  C347  1  0.22958122  0.08661283  0.00177192  1
  C  C348  1  0.88255320  0.90142638  0.00313378  1
  C  C349  1  0.84233200  0.86251440  0.00026919  1
  C  C350  1  0.90554987  0.92387345  0.00372095  1
  C  C351  1  0.92534006  0.94351961  0.00170650  1
  C  C352  1  0.81933355  0.84004328  -0.00126254  1
  C  C353  1  0.80004809  0.81979678  -0.00183963  1
  N  N354  1  0.99272748  0.16363069  0.00238369  1
  N  N355  1  0.99019064  0.18096997  0.00181287  1
  N  N356  1  0.94511479  0.15144859  0.00173946  1
  N  N357  1  0.94766318  0.13411796  0.00222108  1
  N  N358  1  0.16661871  0.09674358  0.00235544  1
  N  N359  1  0.18761070  0.09969409  0.00169932  1
  N  N360  1  0.16591586  0.05558786  0.00169934  1
  N  N361  1  0.14496561  0.05273797  0.00241397  1
  N  N362  1  0.86270222  0.90241367  0.00191575  1
  N  N363  1  0.84139248  0.88182150  0.00035457  1
  N  N364  1  0.86213958  0.86149535  0.00188563  1
  N  N365  1  0.88346060  0.88204135  0.00334827  1
  O  O366  1  0.00553130  0.04036486  0.91065047  1
  O  O367  1  0.84862926  0.31365680  0.91923438  1
  O  O368  1  0.85200823  0.31095263  0.09413509  1
  O  O369  1  0.90714583  0.28565278  0.99085497  1
  O  O370  1  0.46237575  0.18299764  0.08831559  1
  O  O371  1  0.45694267  0.18111198  0.90799371  1
  O  O372  1  0.37301161  0.15366013  0.01519856  1
  O  O373  1  0.69666327  0.59850718  0.91865821  1
  O  O374  1  0.69772871  0.60504184  0.09417275  1
  O  O375  1  0.72049633  0.68235361  0.98784832  1
  O  O376  1  0.65178066  0.37504666  0.55240672  1
  O  O377  1  0.71170500  0.36878150  0.56579879  1
  O  O378  1  0.69557353  0.37276203  0.61590559  1
  O  O379  1  0.67538215  0.41975873  0.43512645  1
  O  O380  1  0.69539374  0.41803915  0.38762658  1
  O  O381  1  0.66699659  0.35331484  0.45712362  1
  O  O382  1  0.66576679  0.35255036  0.54345238  1
  O  O383  1  0.67734602  0.42089255  0.56755897  1
  O  O384  1  0.69410662  0.41605331  0.61689376  1
  O  O385  1  0.71330202  0.37034822  0.43720428  1
  O  O386  1  0.69559434  0.37197590  0.38676212  1
  O  O387  1  0.65047414  0.37384196  0.45246781  1
  O  O388  1  0.70075240  0.40026065  0.54856588  1
  O  O389  1  0.70030382  0.40050083  0.45429083  1
  O  O390  1  0.70572391  0.37395352  0.50128200  1
  O  O391  1  0.67683095  0.41025081  0.50153232  1
