# generated using pymatgen
data_CuH65C92N5O
_symmetry_space_group_name_H-M   'P 1'
_cell_length_a   33.01876863
_cell_length_b   45.40361684
_cell_length_c   69.07586909
_cell_angle_alpha   90.32077268
_cell_angle_beta   85.27560415
_cell_angle_gamma   92.41115517
_symmetry_Int_Tables_number   1
_chemical_formula_structural   CuH65C92N5O
_chemical_formula_sum   'Cu2 H130 C184 N10 O2'
_cell_volume   103113.12447644
_cell_formula_units_Z   2
loop_
 _symmetry_equiv_pos_site_id
 _symmetry_equiv_pos_as_xyz
  1  'x, y, z'
loop_
 _atom_site_type_symbol
 _atom_site_label
 _atom_site_symmetry_multiplicity
 _atom_site_fract_x
 _atom_site_fract_y
 _atom_site_fract_z
 _atom_site_occupancy
  Cu  Cu0  1  0.18176475  0.52092700  0.91213762  1
  Cu  Cu1  1  0.10526879  0.51084405  0.11256468  1
  H  H2  1  0.25464329  0.01851073  0.74846104  1
  H  H3  1  0.24900106  0.10484430  0.78265728  1
  H  H4  1  0.24804275  0.15373400  0.79951780  1
  H  H5  1  0.26159116  0.19775960  0.74420106  1
  H  H6  1  0.26350927  0.14885800  0.72735970  1
  H  H7  1  0.23928075  0.06948419  0.69761078  1
  H  H8  1  0.21171676  0.06804416  0.63386629  1
  H  H9  1  0.20131650  0.06600935  0.59888796  1
  H  H10  1  0.22604745  0.97326867  0.59806912  1
  H  H11  1  0.23780551  0.97593168  0.63287130  1
  H  H12  1  0.23924944  0.97501542  0.69406340  1
  H  H13  1  0.26300473  0.88920409  0.72457309  1
  H  H14  1  0.25980592  0.84184824  0.74315436  1
  H  H15  1  0.24822755  0.89048882  0.79687192  1
  H  H16  1  0.25009616  0.93769944  0.77828368  1
  H  H17  1  0.03750046  0.01291426  0.27688422  1
  H  H18  1  0.01451580  0.92477087  0.24542268  1
  H  H19  1  0.01285500  0.87571138  0.22872577  1
  H  H20  1  0.05091210  0.83471192  0.27987853  1
  H  H21  1  0.05262612  0.88373090  0.29655855  1
  H  H22  1  0.04494369  0.96171997  0.32844071  1
  H  H23  1  0.04195459  0.96373463  0.39594391  1
  H  H24  1  0.05823088  0.96552379  0.42988676  1
  H  H25  1  0.07744801  0.06024780  0.42509930  1
  H  H26  1  0.07083334  0.05659191  0.39005014  1
  H  H27  1  0.04560635  0.05620205  0.33192341  1
  H  H28  1  0.05204966  0.14235198  0.29936366  1
  H  H29  1  0.04696151  0.18974882  0.28159087  1
  H  H30  1  0.01351781  0.14134689  0.23116374  1
  H  H31  1  0.01736193  0.09399429  0.24910785  1
  H  H32  1  0.75844720  0.50914876  0.98362172  1
  H  H33  1  0.83586449  0.50409346  0.03472237  1
  H  H34  1  0.85893361  0.51780024  0.96362787  1
  H  H35  1  0.52032306  0.50482058  0.04252335  1
  H  H36  1  0.44806431  0.49864127  0.99035252  1
  H  H37  1  0.41760574  0.51442501  0.06008871  1
  H  H38  1  0.06694822  0.54031355  0.95994294  1
  H  H39  1  0.07072545  0.50169245  0.96213819  1
  H  H40  1  1.01073620  0.53302755  0.93775815  1
  H  H41  1  0.01662599  0.49463481  0.93751817  1
  H  H42  1  0.99486149  0.53107945  0.97442099  1
  H  H43  1  1.00117504  0.49268424  0.97351945  1
  H  H44  1  0.93249296  0.52601113  0.95713929  1
  H  H45  1  0.94210990  0.48912759  0.95122812  1
  H  H46  1  0.94371192  0.48914993  0.99241660  1
  H  H47  1  0.90840969  0.47270670  0.97756421  1
  H  H48  1  0.01856202  0.48688318  0.06023790  1
  H  H49  1  0.03376411  0.52424201  0.05559862  1
  H  H50  1  0.95142230  0.50198252  0.07612217  1
  H  H51  1  0.96702838  0.53947096  0.07395830  1
  H  H52  1  0.96051354  0.49648290  0.03942062  1
  H  H53  1  0.97763331  0.53382442  0.03765740  1
  H  H54  1  0.89085896  0.51037287  0.04949325  1
  H  H55  1  0.90706347  0.54691862  0.05365938  1
  H  H56  1  0.93413471  0.54542572  0.01513879  1
  H  H57  1  0.88714593  0.55709713  0.02529228  1
  H  H58  1  0.26549132  0.49419738  0.96447460  1
  H  H59  1  0.25774456  0.53181819  0.97003224  1
  H  H60  1  0.33402858  0.50676547  0.94791362  1
  H  H61  1  0.32571135  0.54474289  0.95018062  1
  H  H62  1  0.32896577  0.50230676  0.98477452  1
  H  H63  1  0.31957531  0.54020998  0.98652889  1
  H  H64  1  0.39934581  0.51227762  0.97205025  1
  H  H65  1  0.38974800  0.54892549  0.96646051  1
  H  H66  1  0.37169995  0.55757285  0.00315629  1
  H  H67  1  0.42194931  0.55858781  -0.00686068  1
  H  H68  1  0.24617134  0.49184141  0.08851964  1
  H  H69  1  0.24901045  0.53027823  0.09309478  1
  H  H70  1  0.23845976  0.50144129  0.05302887  1
  H  H71  1  0.23896342  0.53966661  0.05749542  1
  H  H72  1  0.30919128  0.49964878  0.06541693  1
  H  H73  1  0.30800975  0.53784773  0.06986495  1
  H  H74  1  0.31685209  0.50668753  0.03039518  1
  H  H75  1  0.29845789  0.54245591  0.03253917  1
  H  H76  1  0.36583158  0.55006931  0.05380851  1
  H  H77  1  0.36005927  0.56156015  0.03017401  1
  H  H78  1  0.51460518  0.48216453  -0.00021079  1
  H  H79  1  0.77728042  0.53668238  0.02948164  1
  H  H80  1  0.53753430  0.54211840  0.01246850  1
  H  H81  1  0.55531572  0.52274719  0.99126279  1
  H  H82  1  0.58104144  0.51560613  0.03243737  1
  H  H83  1  0.58479543  0.48644936  0.01535767  1
  H  H84  1  0.62950714  0.52017819  0.99247405  1
  H  H85  1  0.62729208  0.54793004  0.01049931  1
  H  H86  1  0.72514185  0.50405382  0.03692022  1
  H  H87  1  0.73620458  0.48306231  0.01551359  1
  H  H88  1  0.70560664  0.52099174  0.99569030  1
  H  H89  1  0.70325497  0.54550232  0.01560470  1
  H  H90  1  0.65346947  0.51160821  0.03410906  1
  H  H91  1  0.65730458  0.48528680  0.01521298  1
  H  H92  1  0.30260504  0.26398101  0.80608824  1
  H  H93  1  0.29276180  0.30847893  0.82546388  1
  H  H94  1  0.16215429  0.29588850  0.82263285  1
  H  H95  1  0.17364156  0.25157549  0.80329201  1
  H  H96  1  0.15385557  0.33211852  0.83783182  1
  H  H97  1  0.14406061  0.37695277  0.85672554  1
  H  H98  1  0.27308726  0.38927596  0.85953927  1
  H  H99  1  0.28430992  0.34457979  0.84069245  1
  H  H100  1  0.17506371  0.78420203  0.79879619  1
  H  H101  1  0.16248003  0.73926729  0.81778147  1
  H  H102  1  0.29113333  0.73934339  0.82707929  1
  H  H103  1  0.30209839  0.78432824  0.80797085  1
  H  H104  1  0.28176141  0.70305879  0.84233975  1
  H  H105  1  0.26927343  0.65809710  0.86119511  1
  H  H106  1  0.14221758  0.65812366  0.85199384  1
  H  H107  1  0.15328985  0.70309986  0.83304628  1
  H  H108  1  0.11368059  0.78029954  0.22240875  1
  H  H109  1  0.12589342  0.73580621  0.20335667  1
  H  H110  1  0.99544137  0.72198519  0.20059117  1
  H  H111  1  0.98487113  0.76666901  0.21969535  1
  H  H112  1  1.00454279  0.68592871  0.18532879  1
  H  H113  1  0.01647029  0.64130519  0.16652697  1
  H  H114  1  0.14536758  0.65490475  0.16917433  1
  H  H115  1  0.13481380  0.69969540  0.18800578  1
  H  H116  1  0.11006058  0.24685350  0.22668349  1
  H  H117  1  0.12271872  0.29183828  0.20775081  1
  H  H118  1  0.99385174  0.29259131  0.19912722  1
  H  H119  1  0.98282024  0.24755146  0.21816555  1
  H  H120  1  1.00329268  0.32882582  0.18377065  1
  H  H121  1  0.01560697  0.37373894  0.16490231  1
  H  H122  1  0.14293738  0.37320855  0.17341045  1
  H  H123  1  0.13194036  0.32826263  0.19237970  1
  H  H124  1  0.13806008  0.06018029  0.47981905  1
  H  H125  1  0.11399033  0.05875089  0.44727640  1
  H  H126  1  0.06284720  0.97046311  0.45868153  1
  H  H127  1  0.09290333  0.97095739  0.48988803  1
  H  H128  1  0.19184482  0.06138964  0.53654608  1
  H  H129  1  0.22070824  0.06177852  0.56833045  1
  H  H130  1  0.17543590  0.97211343  0.57814757  1
  H  H131  1  0.14780876  0.97161926  0.54601833  1
  C  C132  1  0.25044245  0.01961478  0.73300835  1
  C  C133  1  0.24782512  0.04708612  0.72431142  1
  C  C134  1  0.25107003  0.07330109  0.73538017  1
  C  C135  1  0.25339520  0.09655812  0.74436428  1
  C  C136  1  0.25485372  0.12390074  0.75397250  1
  C  C137  1  0.25147662  0.12539426  0.77451822  1
  C  C138  1  0.25076693  0.15218393  0.78373894  1
  C  C139  1  0.25289485  0.17873010  0.77287785  1
  C  C140  1  0.25855714  0.17723439  0.75235881  1
  C  C141  1  0.25960310  0.15043508  0.74312763  1
  C  C142  1  0.24169832  0.04818824  0.70452037  1
  C  C143  1  0.23864055  0.02241885  0.69349313  1
  C  C144  1  0.23307216  0.02338531  0.67340981  1
  C  C145  1  0.22878038  0.02316637  0.65597342  1
  C  C146  1  0.22391029  0.02190495  0.63594667  1
  C  C147  1  0.21481117  0.04743400  0.62580802  1
  C  C148  1  0.20918737  0.04620712  0.60627937  1
  C  C149  1  0.21044477  0.01908994  0.59615072  1
  C  C150  1  0.22136435  0.99379926  0.60599321  1
  C  C151  1  0.22859755  0.99530355  0.62535613  1
  C  C152  1  0.24165983  0.99520395  0.70256696  1
  C  C153  1  0.24772155  0.99347644  0.72228468  1
  C  C154  1  0.25086121  0.96591921  0.73141833  1
  C  C155  1  0.25322142  0.94253028  0.73990801  1
  C  C156  1  0.25471355  0.91613527  0.75029174  1
  C  C157  1  0.25903759  0.88892434  0.74037089  1
  C  C158  1  0.25767415  0.86302209  0.75055508  1
  C  C159  1  0.25280638  0.86325142  0.77112306  1
  C  C160  1  0.25093389  0.89064836  0.78106312  1
  C  C161  1  0.25187548  0.91649585  0.77089174  1
  C  C162  1  0.03978212  0.01176288  0.29250161  1
  C  C163  1  0.04094322  0.98425294  0.30131784  1
  C  C164  1  0.03891628  0.95810853  0.29010866  1
  C  C165  1  0.03698297  0.93480353  0.28116199  1
  C  C166  1  0.03504153  0.90733678  0.27174195  1
  C  C167  1  0.02285397  0.90488292  0.25260137  1
  C  C168  1  0.02224778  0.87804127  0.24341542  1
  C  C169  1  0.03447670  0.85259328  0.25282973  1
  C  C170  1  0.04386387  0.85472602  0.27246135  1
  C  C171  1  0.04448329  0.88152252  0.28164848  1
  C  C172  1  0.04382547  0.98304500  0.32139439  1
  C  C173  1  0.04532657  0.00875872  0.33254902  1
  C  C174  1  0.04836252  0.00751251  0.35284534  1
  C  C175  1  0.05180601  0.00781903  0.37035518  1
  C  C176  1  0.05729871  0.00964989  0.39031279  1
  C  C177  1  0.05206155  0.98451888  0.40233797  1
  C  C178  1  0.06081588  0.98584290  0.42152876  1
  C  C179  1  0.07415763  0.01271457  0.42991344  1
  C  C180  1  0.07411865  0.03853744  0.41852976  1
  C  C181  1  0.06775951  0.03684873  0.39906411  1
  C  C182  1  0.04421749  0.03605459  0.32331914  1
  C  C183  1  0.04139701  0.03787474  0.30330589  1
  C  C184  1  0.03982711  0.06539319  0.29391517  1
  C  C185  1  0.03797599  0.08879782  0.28537746  1
  C  C186  1  0.03549640  0.11531431  0.27524406  1
  C  C187  1  0.04367946  0.14263575  0.28445062  1
  C  C188  1  0.04157655  0.16855839  0.27460185  1
  C  C189  1  0.03278539  0.16830655  0.25485022  1
  C  C190  1  0.02244463  0.14108300  0.24598223  1
  C  C191  1  0.02413339  0.11514668  0.25588314  1
  C  C192  1  0.09543918  0.51935373  0.93583720  1
  C  C193  1  0.19076392  0.46119589  0.88995853  1
  C  C194  1  0.25157285  0.52015812  0.94116351  1
  C  C195  1  0.18887353  0.58031342  0.88931286  1
  C  C196  1  0.03530005  0.51109639  0.08434122  1
  C  C197  1  0.09947947  0.56982469  0.13608381  1
  C  C198  1  0.19107884  0.51291376  0.08843121  1
  C  C199  1  0.09739641  0.45146196  0.13627527  1
  C  C200  1  0.88744783  0.51147184  0.99069117  1
  C  C201  1  0.88062020  0.51650144  0.01117811  1
  C  C202  1  0.84151941  0.50999252  0.01935663  1
  C  C203  1  0.80772606  0.51330601  0.00850050  1
  C  C204  1  0.81477503  0.51369556  0.98810985  1
  C  C205  1  0.85456132  0.51453699  0.97935533  1
  C  C206  1  0.39797594  0.52495598  0.03158721  1
  C  C207  1  0.40884065  0.52204759  0.01136613  1
  C  C208  1  0.44272860  0.50563792  0.00547345  1
  C  C209  1  0.47490017  0.50478759  0.01757200  1
  C  C210  1  0.46555797  0.50974314  0.03741813  1
  C  C211  1  0.42544438  0.51517794  0.04441311  1
  C  C212  1  0.01967557  0.51457725  0.94656942  1
  C  C213  1  0.06364476  0.51920609  0.95193256  1
  C  C214  1  0.99101023  0.51133633  0.96519977  1
  C  C215  1  0.94561357  0.50607950  0.96256496  1
  C  C216  1  0.92238503  0.49436131  0.98159425  1
  C  C217  1  0.97076769  0.51771227  0.06700633  1
  C  C218  1  0.01551309  0.50956703  0.06609482  1
  C  C219  1  0.95670592  0.51835307  0.04625026  1
  C  C220  1  0.91308842  0.52776200  0.04407755  1
  C  C221  1  0.90572031  0.53726381  0.02312549  1
  C  C222  1  0.31856795  0.52326081  0.95731222  1
  C  C223  1  0.27237696  0.51693224  0.95900006  1
  C  C224  1  0.33580946  0.52367630  0.97741290  1
  C  C225  1  0.38172799  0.53127101  0.97716363  1
  C  C226  1  0.39523997  0.54330256  -0.00335756  1
  C  C227  1  0.25054830  0.51879420  0.06245977  1
  C  C228  1  0.23530329  0.51322616  0.08376503  1
  C  C229  1  0.29752617  0.52030289  0.06010041  1
  C  C230  1  0.31736215  0.52671266  0.03945325  1
  C  C231  1  0.36084713  0.54159378  0.03916706  1
  C  C232  1  0.54739556  0.52050216  0.00703523  1
  C  C233  1  0.58452395  0.51067328  0.01670555  1
  C  C234  1  0.62536519  0.52379834  0.00834230  1
  C  C235  1  0.73344459  0.50573645  0.02114506  1
  C  C236  1  0.70078664  0.52194798  0.01169964  1
  C  C237  1  0.65889400  0.50925019  0.01817153  1
  C  C238  1  0.24944305  0.20596443  0.78258069  1
  C  C239  1  0.24507183  0.22894903  0.79173872  1
  C  C240  1  0.23899234  0.25471419  0.80292014  1
  C  C241  1  0.27192767  0.27146274  0.80970990  1
  C  C242  1  0.26596336  0.29667171  0.82072023  1
  C  C243  1  0.22646324  0.30681505  0.82572990  1
  C  C244  1  0.19338925  0.28969086  0.81914932  1
  C  C245  1  0.19953331  0.26451068  0.80814634  1
  C  C246  1  0.22011946  0.33393819  0.83731285  1
  C  C247  1  0.18070098  0.34415421  0.84234858  1
  C  C248  1  0.17483964  0.36965830  0.85310203  1
  C  C249  1  0.20772558  0.38688057  0.85962030  1
  C  C250  1  0.24702639  0.37654391  0.85467280  1
  C  C251  1  0.25311327  0.35105864  0.84392625  1
  C  C252  1  0.20167031  0.41306302  0.87052777  1
  C  C253  1  0.19651484  0.43577526  0.87969800  1
  C  C254  1  0.24978662  0.83667165  0.78161527  1
  C  C255  1  0.24574183  0.81373575  0.79094926  1
  C  C256  1  0.23948419  0.78759397  0.80189340  1
  C  C257  1  0.20025481  0.77397675  0.80509568  1
  C  C258  1  0.19349444  0.74848331  0.81589707  1
  C  C259  1  0.22571352  0.73482603  0.82425734  1
  C  C260  1  0.26500995  0.74855582  0.82105205  1
  C  C261  1  0.27159869  0.77408916  0.81022749  1
  C  C262  1  0.21867008  0.70753209  0.83579171  1
  C  C263  1  0.25075430  0.69379102  0.84417064  1
  C  C264  1  0.24394209  0.66820783  0.85493644  1
  C  C265  1  0.20477307  0.65442930  0.85817635  1
  C  C266  1  0.17283777  0.66818513  0.84980487  1
  C  C267  1  0.17942711  0.69379274  0.83901648  1
  C  C268  1  0.19820651  0.62822123  0.86921441  1
  C  C269  1  0.19365319  0.60563728  0.87871472  1
  C  C270  1  0.03746697  0.82563351  0.24276673  1
  C  C271  1  0.04189653  0.80268848  0.23356676  1
  C  C272  1  0.04836665  0.77674915  0.22262096  1
  C  C273  1  0.08799412  0.76713421  0.21755249  1
  C  C274  1  0.09455090  0.74184201  0.20671510  1
  C  C275  1  0.06176146  0.72437639  0.20016060  1
  C  C276  1  0.02207824  0.73417126  0.20518683  1
  C  C277  1  0.01569414  0.75949597  0.21603624  1
  C  C278  1  0.06856356  0.69723855  0.18862606  1
  C  C279  1  0.03586671  0.67974838  0.18206556  1
  C  C280  1  0.04237618  0.65427898  0.17133548  1
  C  C281  1  0.08185189  0.64426621  0.16633057  1
  C  C282  1  0.11443024  0.66186953  0.17281162  1
  C  C283  1  0.10814519  0.68736704  0.18354670  1
  C  C284  1  0.08832321  0.61806903  0.15544357  1
  C  C285  1  0.09359293  0.59531773  0.14630999  1
  C  C286  1  0.03478385  0.19475315  0.24421255  1
  C  C287  1  0.03884826  0.21762245  0.23479583  1
  C  C288  1  0.04549296  0.24380471  0.22389315  1
  C  C289  1  0.08481812  0.25723661  0.22052880  1
  C  C290  1  0.09163243  0.28278031  0.20974920  1
  C  C291  1  0.05942375  0.29670848  0.20155351  1
  C  C292  1  0.02004780  0.28317941  0.20496097  1
  C  C293  1  0.01340308  0.25760827  0.21575774  1
  C  C294  1  0.06646996  0.32404070  0.19000138  1
  C  C295  1  0.03435202  0.33797504  0.18179106  1
  C  C296  1  0.04109911  0.36358488  0.17099467  1
  C  C297  1  0.08026683  0.37729258  0.16751351  1
  C  C298  1  0.11224551  0.36330998  0.17573692  1
  C  C299  1  0.10571863  0.33768605  0.18655286  1
  C  C300  1  0.08688906  0.40353025  0.15643040  1
  C  C301  1  0.09185642  0.42612505  0.14692600  1
  C  C302  1  0.11856520  0.01539826  0.48708890  1
  C  C303  1  0.12247985  0.04028132  0.47476415  1
  C  C304  1  0.10799586  0.03952784  0.45656471  1
  C  C305  1  0.08753196  0.01399320  0.44973277  1
  C  C306  1  0.08125949  0.98972221  0.46253831  1
  C  C307  1  0.09702296  0.99022797  0.48046858  1
  C  C308  1  0.13528723  0.01594454  0.50525398  1
  C  C309  1  0.15001704  0.01632394  0.52097562  1
  C  C310  1  0.16685412  0.01667101  0.53910650  1
  C  C311  1  0.18787973  0.04200453  0.54586285  1
  C  C312  1  0.20305300  0.04246892  0.56391134  1
  C  C313  1  0.19821434  0.01756660  0.57612444  1
  C  C314  1  0.17939854  0.99163820  0.56900195  1
  C  C315  1  0.16364696  0.99136580  0.55111374  1
  N  N316  1  0.12431124  0.51965731  0.92481850  1
  N  N317  1  0.18549916  0.48325357  0.89868612  1
  N  N318  1  0.23039179  0.52203464  0.92848312  1
  N  N319  1  0.18529167  0.55849485  0.89855100  1
  N  N320  1  0.05582737  0.51143042  0.09737098  1
  N  N321  1  0.10484011  0.54764927  0.12746904  1
  N  N322  1  0.15687573  0.51216376  0.09448711  1
  N  N323  1  0.10263749  0.47334076  0.12711469  1
  N  N324  1  0.51399560  0.49807229  0.01028070  1
  N  N325  1  0.77221736  0.52238272  0.01841395  1
  O  O326  1  0.78393866  0.51391264  0.97599811  1
  O  O327  1  0.49483384  0.50818891  0.05027334  1
