# generated using pymatgen
data_SiH182(C131O7)2
_symmetry_space_group_name_H-M   'P 1'
_cell_length_a   36.50740481
_cell_length_b   35.04825226
_cell_length_c   62.54347157
_cell_angle_alpha   89.47887565
_cell_angle_beta   91.33045872
_cell_angle_gamma   88.93404561
_symmetry_Int_Tables_number   1
_chemical_formula_structural   SiH182(C131O7)2
_chemical_formula_sum   'Si1 H182 C262 O14'
_cell_volume   79986.61544575
_cell_formula_units_Z   1
loop_
 _symmetry_equiv_pos_site_id
 _symmetry_equiv_pos_as_xyz
  1  'x, y, z'
loop_
 _atom_site_type_symbol
 _atom_site_label
 _atom_site_symmetry_multiplicity
 _atom_site_fract_x
 _atom_site_fract_y
 _atom_site_fract_z
 _atom_site_occupancy
  Si  Si0  1  0.53617356  0.53168766  0.51279683  1
  H  H1  1  -0.00485073  0.97539678  0.97088981  1
  H  H2  1  0.05864328  0.02350471  0.92051038  1
  H  H3  1  0.03832582  0.08828338  0.97535208  1
  H  H4  1  0.08642851  0.04866514  0.04521379  1
  H  H5  1  0.02332583  0.01537287  0.09821229  1
  H  H6  1  0.97239646  0.02441334  0.03623689  1
  H  H7  1  0.67014954  0.54000002  0.56378474  1
  H  H8  1  0.53025509  0.66035024  0.45353386  1
  H  H9  1  0.49084451  0.55601895  0.47985384  1
  H  H10  1  0.52921369  0.40798844  0.45110508  1
  H  H11  1  0.41139964  0.53562508  0.56901028  1
  H  H12  1  0.59404812  0.60102110  0.50275745  1
  H  H13  1  0.47663038  0.46229319  0.50419910  1
  H  H14  1  0.57737666  0.50628421  0.47933371  1
  H  H15  1  0.51287497  0.48941316  0.54681219  1
  H  H16  1  0.46893821  0.59556902  0.51990820  1
  H  H17  1  0.60783998  0.47282961  0.51964187  1
  H  H18  1  0.55812390  0.57115693  0.54958644  1
  H  H19  1  0.84021151  0.44134975  0.63762565  1
  H  H20  1  0.84000006  0.35790936  0.62191721  1
  H  H21  1  0.88874013  0.31593302  0.63181144  1
  H  H22  1  0.94950811  0.30162577  0.64768560  1
  H  H23  1  0.95588971  0.41705895  0.67034725  1
  H  H24  1  0.89503428  0.43204368  0.65412920  1
  H  H25  1  0.00884648  0.30232455  0.65532821  1
  H  H26  1  0.98385917  0.29450581  0.67887963  1
  H  H27  1  0.00792628  0.29750514  0.73477359  1
  H  H28  1  -0.00263791  0.26820633  0.71279035  1
  H  H29  1  0.98322461  0.31691455  0.71246575  1
  H  H30  1  0.04571976  0.33431504  0.64268443  1
  H  H31  1  0.08267767  0.30096439  0.64171790  1
  H  H32  1  0.09082897  0.35025804  0.64471601  1
  H  H33  1  0.14098155  0.32517141  0.73699613  1
  H  H34  1  0.15183617  0.35744797  0.71616548  1
  H  H35  1  0.16432939  0.30871812  0.71448765  1
  H  H36  1  0.16387681  0.32239825  0.68093247  1
  H  H37  1  0.13665921  0.33184079  0.65750010  1
  H  H38  1  0.18668352  0.34178293  0.65197904  1
  H  H39  1  0.24320827  0.36734399  0.63921345  1
  H  H40  1  0.22287247  0.47256337  0.67386487  1
  H  H41  1  0.16343335  0.44663337  0.68575136  1
  H  H42  1  0.28217569  0.46202362  0.65308696  1
  H  H43  1  0.29126840  0.37838598  0.63710702  1
  H  H44  1  0.09325503  0.33127792  0.74974880  1
  H  H45  1  0.04829423  0.31373796  0.75009419  1
  H  H46  1  0.07653985  0.31985537  0.78193349  1
  H  H47  1  0.06450221  0.29962445  0.81875368  1
  H  H48  1  0.08579336  0.18228046  0.80175719  1
  H  H49  1  0.09667798  0.20278355  0.76448029  1
  H  H50  1  0.06088227  0.25311072  0.84564985  1
  H  H51  1  0.06249524  0.16798151  0.83423184  1
  H  H52  1  0.64802015  0.81817898  0.37889180  1
  H  H53  1  0.71222608  0.83614026  0.41021334  1
  H  H54  1  0.75193490  0.88595234  0.40247444  1
  H  H55  1  0.77279080  0.93937548  0.38072072  1
  H  H56  1  0.68540637  0.92006214  0.33484995  1
  H  H57  1  0.66424067  0.86614712  0.35656429  1
  H  H58  1  0.79536363  0.97287651  0.35083442  1
  H  H59  1  0.76336485  -0.00169883  0.36633377  1
  H  H60  1  0.70993963  0.08216871  0.35968965  1
  H  H61  1  0.74746014  0.05902597  0.37271163  1
  H  H62  1  0.71146762  0.03185463  0.36154765  1
  H  H63  1  0.80773469  0.96029919  0.32095620  1
  H  H64  1  0.84378583  0.99286664  0.31784050  1
  H  H65  1  0.81786064  0.97762301  0.29529336  1
  H  H66  1  0.74769641  0.13717069  0.29062016  1
  H  H67  1  0.75730791  0.10234665  0.27106849  1
  H  H68  1  0.79330523  0.12526802  0.28489142  1
  H  H69  1  0.82388404  0.07445612  0.27692603  1
  H  H70  1  0.83018232  0.02427527  0.27990883  1
  H  H71  1  0.85637892  0.04833413  0.25276252  1
  H  H72  1  0.88098883  0.05154402  0.21673379  1
  H  H73  1  0.77255579  0.03742733  0.18939510  1
  H  H74  1  0.74751463  0.03389326  0.22589216  1
  H  H75  1  0.82576187  0.04054995  0.16588066  1
  H  H76  1  0.89374034  0.07931437  0.18363038  1
  H  H77  1  0.71003601  0.12891205  0.31037386  1
  H  H78  1  0.69977796  0.11408562  0.33656771  1
  H  H79  1  0.67539151  0.16674632  0.32473378  1
  H  H80  1  0.63932391  0.21550610  0.34347756  1
  H  H81  1  0.73708447  0.24768686  0.37923899  1
  H  H82  1  0.77235857  0.19707805  0.36121496  1
  H  H83  1  0.63502452  0.26721518  0.36865035  1
  H  H84  1  0.70754970  0.28701558  0.39292884  1
  H  H85  1  0.79243008  0.70362141  0.62545460  1
  H  H86  1  0.78584235  0.63559485  0.65735079  1
  H  H87  1  0.83577739  0.62544695  0.68284170  1
  H  H88  1  0.89797603  0.63950301  0.69617064  1
  H  H89  1  0.90657829  0.72825343  0.64809963  1
  H  H90  1  0.84489408  0.71306709  0.63380768  1
  H  H91  1  0.95604035  0.64545532  0.69685895  1
  H  H92  1  0.93198812  0.67986007  0.71200170  1
  H  H93  1  0.95256550  0.76613462  0.73665030  1
  H  H94  1  0.94350358  0.71743022  0.74040579  1
  H  H95  1  0.92865026  0.74126809  0.71656140  1
  H  H96  1  0.99111141  0.64366594  0.67327322  1
  H  H97  1  0.02773723  0.62425170  0.68914776  1
  H  H98  1  0.03639794  0.65178578  0.66593220  1
  H  H99  1  0.08380576  0.78530334  0.72154579  1
  H  H100  1  0.09637935  0.76848396  0.69598645  1
  H  H101  1  0.10843809  0.74195095  0.71937995  1
  H  H102  1  0.10975647  0.69537081  0.69570612  1
  H  H103  1  0.08371125  0.66496373  0.67884215  1
  H  H104  1  0.14130326  0.66037362  0.67297932  1
  H  H105  1  0.19771148  0.65073522  0.65353260  1
  H  H106  1  0.17066838  0.74956086  0.61403210  1
  H  H107  1  0.11348793  0.75897201  0.63385366  1
  H  H108  1  0.22590581  0.71460171  0.60648532  1
  H  H109  1  0.24711664  0.64457374  0.63500186  1
  H  H110  1  0.03723295  0.80567982  0.72811662  1
  H  H111  1  0.99204465  0.79668206  0.73585445  1
  H  H112  1  0.01662554  0.84625027  0.74800884  1
  H  H113  1  0.00189345  0.89294363  0.77549183  1
  H  H114  1  0.02529902  0.80825856  0.82488298  1
  H  H115  1  0.03804353  0.76042536  0.79694586  1
  H  H116  1  0.99758455  0.91204213  0.80948209  1
  H  H117  1  0.01336148  0.85711056  0.84766090  1
  H  H118  1  0.40544165  0.77733070  0.36865773  1
  H  H119  1  0.33239472  0.77088011  0.39293287  1
  H  H120  1  0.28861265  0.82437337  0.38610516  1
  H  H121  1  0.27520973  0.88906247  0.37197847  1
  H  H122  1  0.38538058  0.89547984  0.34838147  1
  H  H123  1  0.40003969  0.83162504  0.36367899  1
  H  H124  1  0.27626733  0.94853825  0.36589374  1
  H  H125  1  0.26847877  0.92268733  0.34202052  1
  H  H126  1  0.27220858  0.94424245  0.28684572  1
  H  H127  1  0.24509818  0.93350859  0.30893807  1
  H  H128  1  0.29203336  0.91981729  0.30915964  1
  H  H129  1  0.31162763  0.98450998  0.37801832  1
  H  H130  1  0.27887809  0.02211681  0.37989730  1
  H  H131  1  0.32603028  0.03189174  0.37728220  1
  H  H132  1  0.30034957  0.08242660  0.28448301  1
  H  H133  1  0.33236177  0.09503066  0.30500045  1
  H  H134  1  0.28547205  0.10746363  0.30705897  1
  H  H135  1  0.29753007  0.10838288  0.34155587  1
  H  H136  1  0.31020770  0.08076480  0.36463267  1
  H  H137  1  0.31710340  0.13887575  0.37114713  1
  H  H138  1  0.34138268  0.19787480  0.38540363  1
  H  H139  1  0.44250566  0.17751639  0.35230936  1
  H  H140  1  0.41780852  0.11713541  0.33835327  1
  H  H141  1  0.43817572  0.23323590  0.37479492  1
  H  H142  1  0.36449280  0.24925249  0.39684197  1
  H  H143  1  0.30575605  0.03221521  0.27154655  1
  H  H144  1  0.28868232  0.98547220  0.27187338  1
  H  H145  1  0.29424287  0.01294497  0.24010337  1
  H  H146  1  0.27422873  0.99795104  0.20342053  1
  H  H147  1  0.16183404  0.02049149  0.21996031  1
  H  H148  1  0.18195168  0.03406563  0.25724778  1
  H  H149  1  0.22720857  0.99485720  0.17611909  1
  H  H150  1  0.14753392  -0.01419492  0.18814513  1
  H  H151  1  0.95567594  0.07631132  0.07447676  1
  H  H152  1  0.93388560  0.03481669  0.06610641  1
  H  H153  1  0.98524681  -0.00239956  0.11293091  1
  H  H154  1  0.89223249  0.06619669  0.09249228  1
  H  H155  1  0.89246459  -0.00010216  0.16312403  1
  H  H156  1  0.92987114  0.02314286  0.17535443  1
  H  H157  1  0.87077617  0.06621110  0.12925053  1
  H  H158  1  0.97338424  0.01430853  0.15026120  1
  H  H159  1  -0.00673438  0.07654023  0.92162142  1
  H  H160  1  0.00201867  0.11299205  0.94013474  1
  H  H161  1  0.09280180  0.09585936  0.92125231  1
  H  H162  1  0.98506488  0.13560799  0.90074488  1
  H  H163  1  0.08584458  0.21279170  0.87502615  1
  H  H164  1  0.11448297  0.17774768  0.86394283  1
  H  H165  1  0.01165808  0.17226549  0.87156626  1
  H  H166  1  0.11941416  0.13234530  0.89208028  1
  H  H167  1  0.08125424  -0.03324323  0.08060859  1
  H  H168  1  0.11302439  -0.00276826  0.06890471  1
  H  H169  1  0.07138498  0.05609807  0.10928871  1
  H  H170  1  0.14614733  0.96130905  0.10001358  1
  H  H171  1  0.17993064  0.04648871  0.15796496  1
  H  H172  1  0.13857852  0.05074584  0.17193422  1
  H  H173  1  0.17009668  0.96797680  0.13677432  1
  H  H174  1  0.09420924  0.06171463  0.14614754  1
  H  H175  1  0.06486289  0.94566317  0.93699026  1
  H  H176  1  0.02332553  0.93288268  0.94847418  1
  H  H177  1  0.00271985  1.00240312  0.90477434  1
  H  H178  1  0.02342360  0.88421834  0.92097901  1
  H  H179  1  0.95589998  0.90794119  0.85207711  1
  H  H180  1  0.98531756  0.94110669  0.84081113  1
  H  H181  1  0.01022345  0.86614622  0.88389668  1
  H  H182  1  0.99064534  0.98477152  0.86754389  1
  C  C183  1  0.01863100  0.03046727  0.97659291  1
  C  C184  1  0.01227782  -0.00216373  0.96457799  1
  C  C185  1  0.04382595  0.02558988  0.93543215  1
  C  C186  1  0.03048230  -0.00709726  0.94544396  1
  C  C187  1  0.03218177  0.06260945  0.96637469  1
  C  C188  1  0.03516098  0.06154946  0.94407593  1
  C  C189  1  0.00920404  0.02694526  -0.00050243  1
  C  C190  1  0.02945630  0.03903459  0.03797458  1
  C  C191  1  0.06062219  0.03838452  0.05123019  1
  C  C192  1  0.02434927  0.02194895  0.08120745  1
  C  C193  1  0.05861916  0.02095137  0.07127749  1
  C  C194  1  0.99569110  0.03048547  0.04679553  1
  C  C195  1  0.99239284  0.03026992  0.06902987  1
  C  C196  1  0.03526474  0.04678678  0.01487295  1
  C  C197  1  0.61464320  0.55942888  0.55721163  1
  C  C198  1  0.50742870  0.60867272  0.46600000  1
  C  C199  1  0.51200389  0.57742792  0.48007128  1
  C  C200  1  0.54203798  0.57516130  0.49404361  1
  C  C201  1  0.57054366  0.60208099  0.49176484  1
  C  C202  1  0.56798079  0.63110073  0.47570036  1
  C  C203  1  0.53466644  0.63577403  0.46426254  1
  C  C204  1  0.49702007  0.43486243  0.47563791  1
  C  C205  1  0.49806703  0.46211935  0.49243142  1
  C  C206  1  0.52755351  0.48821708  0.49440875  1
  C  C207  1  0.55583290  0.48536629  0.48003133  1
  C  C208  1  0.55762988  0.45456599  0.46583566  1
  C  C209  1  0.52804648  0.43043177  0.46312983  1
  C  C210  1  0.43886031  0.57173427  0.54637079  1
  C  C211  1  0.43493985  0.53858769  0.55864684  1
  C  C212  1  0.46127096  0.50932684  0.55813480  1
  C  C213  1  0.49200398  0.51182302  0.54520792  1
  C  C214  1  0.49419620  0.54153028  0.53054446  1
  C  C215  1  0.46758942  0.57206831  0.53130345  1
  C  C216  1  0.64397689  0.53373929  0.55581139  1
  C  C217  1  0.63898233  0.49878770  0.54564218  1
  C  C218  1  0.60849494  0.49584936  0.53114688  1
  C  C219  1  0.57970336  0.52410374  0.53095012  1
  C  C220  1  0.58136595  0.55255324  0.54624367  1
  C  C221  1  0.83235608  0.41727994  0.62748774  1
  C  C222  1  0.85204109  0.38275200  0.62953526  1
  C  C223  1  0.88683688  0.37554641  0.64067869  1
  C  C224  1  0.90329228  0.33852434  0.64008169  1
  C  C225  1  0.93742105  0.33009438  0.64946542  1
  C  C226  1  0.95626167  0.35822708  0.66065824  1
  C  C227  1  0.94086961  0.39501517  0.66183047  1
  C  C228  1  0.90669112  0.40343592  0.65232786  1
  C  C229  1  0.00449274  0.31279319  0.67165399  1
  C  C230  1  0.04001832  0.31316938  0.68436806  1
  C  C231  1  0.07230082  0.32176468  0.67355077  1
  C  C232  1  0.10509761  0.32437022  0.68572181  1
  C  C233  1  0.10643873  0.32101432  0.70826034  1
  C  C234  1  0.07388889  0.31234496  0.71882876  1
  C  C235  1  0.04085587  0.30759937  0.70691394  1
  C  C236  1  0.00577333  0.29716144  0.71731077  1
  C  C237  1  0.07281876  0.32712089  0.64963417  1
  C  C238  1  0.14236848  0.32837437  0.71961693  1
  C  C239  1  0.13859327  0.33675935  0.67478697  1
  C  C240  1  0.17269112  0.39231109  0.67046601  1
  C  C241  1  0.19467322  0.37014309  0.65713848  1
  C  C242  1  0.22708550  0.38447294  0.65016500  1
  C  C243  1  0.23850669  0.42113560  0.65674142  1
  C  C244  1  0.21479209  0.44386499  0.66941023  1
  C  C245  1  0.18182685  0.42961399  0.67600512  1
  C  C246  1  0.27269978  0.43332594  0.64960891  1
  C  C247  1  0.29476514  0.40933443  0.63741230  1
  C  C248  1  0.07518542  0.30942292  0.74288719  1
  C  C249  1  0.08474360  0.26214208  0.77048782  1
  C  C250  1  0.07694823  0.28951882  0.78594902  1
  C  C251  1  0.07088543  0.27811534  0.80685360  1
  C  C252  1  0.07271474  0.23923425  0.81316000  1
  C  C253  1  0.08281003  0.21238469  0.79743523  1
  C  C254  1  0.08903202  0.22375129  0.77643770  1
  C  C255  1  0.06645402  0.22874032  0.83533121  1
  C  C256  1  0.06860895  0.19300739  0.84397503  1
  C  C257  1  0.66506163  0.81623789  0.39358033  1
  C  C258  1  0.69476859  0.84063163  0.39598754  1
  C  C259  1  0.70580200  0.87146462  0.38193801  1
  C  C260  1  0.73680271  0.89334308  0.38774990  1
  C  C261  1  0.74864761  0.92381297  0.37544351  1
  C  C262  1  0.72997672  0.93385267  0.35639720  1
  C  C263  1  0.69973957  0.91249724  0.34984420  1
  C  C264  1  0.68784006  0.88204922  0.36227562  1
  C  C265  1  0.76905334  0.98878535  0.34998364  1
  C  C266  1  0.76983394  0.02173271  0.33423390  1
  C  C267  1  0.79019708  0.01896830  0.31527503  1
  C  C268  1  0.78827366  0.04901805  0.29998041  1
  C  C269  1  0.76636268  0.08192336  0.30353524  1
  C  C270  1  0.74578424  0.08376294  0.32232585  1
  C  C271  1  0.74813193  0.05474356  0.33814737  1
  C  C272  1  0.72824684  0.05718449  0.35889701  1
  C  C273  1  0.81591153  0.98576860  0.31212747  1
  C  C274  1  0.76591472  0.11314192  0.28684762  1
  C  C275  1  0.80950439  0.04745284  0.27965795  1
  C  C276  1  0.79995584  0.04242957  0.24166492  1
  C  C277  1  0.83754473  0.04696016  0.23902334  1
  C  C278  1  0.85150771  0.04895846  0.21855413  1
  C  C279  1  0.82851539  0.04694707  0.20012700  1
  C  C280  1  0.79078468  0.04054285  0.20329470  1
  C  C281  1  0.77666024  0.03855142  0.22373006  1
  C  C282  1  0.84416348  0.04850275  0.17905990  1
  C  C283  1  0.88017047  0.05559339  0.17565210  1
  C  C284  1  0.72242195  0.11858834  0.32562372  1
  C  C285  1  0.72556076  0.17765913  0.34294718  1
  C  C286  1  0.68848144  0.18354535  0.33722235  1
  C  C287  1  0.66846239  0.21154901  0.34728776  1
  C  C288  1  0.68515025  0.23540962  0.36275402  1
  C  C289  1  0.72327316  0.22985185  0.36748930  1
  C  C290  1  0.74326223  0.20155148  0.35743434  1
  C  C291  1  0.66405479  0.26400734  0.37299049  1
  C  C292  1  0.67842499  0.28846405  0.38831914  1
  C  C293  1  0.78299083  0.67644960  0.63184443  1
  C  C294  1  0.80018521  0.65875724  0.64955131  1
  C  C295  1  0.83539331  0.66826465  0.65753591  1
  C  C296  1  0.85125088  0.64803277  0.67532505  1
  C  C297  1  0.88591531  0.65625321  0.68293776  1
  C  C298  1  0.90530554  0.68544716  0.67308382  1
  C  C299  1  0.89064625  0.70585488  0.65547266  1
  C  C300  1  0.85606936  0.69736063  0.64765763  1
  C  C301  1  0.95273113  0.67628019  0.69965405  1
  C  C302  1  0.98795339  0.69529028  0.70498114  1
  C  C303  1  0.01928017  0.68463043  0.69344836  1
  C  C304  1  0.05130283  0.70621879  0.69587219  1
  C  C305  1  0.05146284  0.73825663  0.70955885  1
  C  C306  1  0.01921898  0.74919220  0.72021278  1
  C  C307  1  0.98693309  0.72795652  0.71803403  1
  C  C308  1  0.95143496  0.73879122  0.72839875  1
  C  C309  1  0.01856417  0.64962924  0.67975295  1
  C  C310  1  0.08648850  0.75972740  0.71176586  1
  C  C311  1  0.08576122  0.69434439  0.68467479  1
  C  C312  1  0.12407335  0.71123940  0.65525057  1
  C  C313  1  0.14769379  0.68044268  0.66022963  1
  C  C314  1  0.17964983  0.67459128  0.64878695  1
  C  C315  1  0.18920840  0.69875696  0.63150781  1
  C  C316  1  0.16438746  0.72972064  0.62689049  1
  C  C317  1  0.13236811  0.73550771  0.63821078  1
  C  C318  1  0.22173120  0.69304290  0.61883231  1
  C  C319  1  0.24810183  0.66362723  0.62097506  1
  C  C320  1  0.01938341  0.78344903  0.73437896  1
  C  C321  1  0.02654017  0.79977434  0.77081347  1
  C  C322  1  0.01749538  0.83735030  0.76474664  1
  C  C323  1  0.01016561  0.86400490  0.78028058  1
  C  C324  1  0.01290246  0.85467178  0.80231256  1
  C  C325  1  0.02312782  0.81669349  0.80807702  1
  C  C326  1  0.03020813  0.78963982  0.79244343  1
  C  C327  1  0.00454180  0.88479267  0.81736000  1
  C  C328  1  0.00368815  0.88270893  0.83898757  1
  C  C329  1  0.38711096  0.76789058  0.38119123  1
  C  C330  1  0.35306205  0.78568566  0.38383244  1
  C  C331  1  0.34477422  0.82247721  0.37537344  1
  C  C332  1  0.30966156  0.83983564  0.37770108  1
  C  C333  1  0.30207675  0.87592176  0.36958661  1
  C  C334  1  0.32947377  0.89530384  0.35879150  1
  C  C335  1  0.36458068  0.87942408  0.35666298  1
  C  C336  1  0.37237642  0.84343187  0.36495336  1
  C  C337  1  0.28572375  0.94457952  0.34946071  1
  C  C338  1  0.28653161  0.98113967  0.33704911  1
  C  C339  1  0.29845584  0.01393296  0.34790767  1
  C  C340  1  0.30350779  0.04768137  0.33599697  1
  C  C341  1  0.29829260  0.04787321  0.31344410  1
  C  C342  1  0.28864306  0.01392344  0.30279354  1
  C  C343  1  0.28236526  0.98014839  0.31451268  1
  C  C344  1  0.27250561  0.94286647  0.30432502  1
  C  C345  1  0.30410800  0.01303631  0.37181757  1
  C  C346  1  0.30443213  0.08474579  0.30180926  1
  C  C347  1  0.31418599  0.08362449  0.34733845  1
  C  C348  1  0.36548100  0.12462480  0.35315435  1
  C  C349  1  0.34458160  0.14721474  0.36675942  1
  C  C350  1  0.35881000  0.18061960  0.37521667  1
  C  C351  1  0.39480251  0.19267281  0.37078539  1
  C  C352  1  0.41512434  0.16901935  0.35673513  1
  C  C353  1  0.40115974  0.13535967  0.34850955  1
  C  C354  1  0.41073906  0.22651423  0.38003946  1
  C  C355  1  0.39415658  0.25126671  0.39453366  1
  C  C356  1  0.28502025  0.01399003  0.27878100  1
  C  C357  1  0.23893664  0.02178199  0.25138117  1
  C  C358  1  0.26504191  0.01274113  0.23608616  1
  C  C359  1  0.25379075  0.00480326  0.21529975  1
  C  C360  1  0.21626989  0.00564864  0.20908326  1
  C  C361  1  0.19072623  0.01738906  0.22455345  1
  C  C362  1  0.20190327  0.02542918  0.24542966  1
  C  C363  1  0.20476938  -0.00172659  0.18724618  1
  C  C364  1  0.16935810  0.00061322  0.17989488  1
  C  C365  1  0.66692839  0.47190062  0.55192424  1
  C  C366  1  0.69371861  0.46150053  0.56352697  1
  C  C367  1  0.72192559  0.45082633  0.57623705  1
  C  C368  1  0.74821086  0.44173771  0.58852087  1
  C  C369  1  0.77622777  0.43210724  0.60155036  1
  C  C370  1  0.80251659  0.42309609  0.61375926  1
  C  C371  1  0.58885329  0.44792083  0.45337508  1
  C  C372  1  0.60321948  0.42450189  0.44117382  1
  C  C373  1  0.61687599  0.39780324  0.42884258  1
  C  C374  1  0.62778935  0.37012866  0.41838856  1
  C  C375  1  0.64270109  0.34174806  0.40777834  1
  C  C376  1  0.65736799  0.31543183  0.39792246  1
  C  C377  1  0.41153204  0.59966937  0.55121911  1
  C  C378  1  0.38499619  0.61188590  0.56163814  1
  C  C379  1  0.35682203  0.62447263  0.57297313  1
  C  C380  1  0.33052164  0.63514355  0.58406068  1
  C  C381  1  0.30254831  0.64636882  0.59589539  1
  C  C382  1  0.27631244  0.65684168  0.60701197  1
  C  C383  1  0.59430939  0.65774448  0.46913628  1
  C  C384  1  0.60704059  0.68363968  0.45788802  1
  C  C385  1  0.62023396  0.71110500  0.44556533  1
  C  C386  1  0.63188153  0.73660425  0.43353900  1
  C  C387  1  0.64415496  0.76363727  0.42062823  1
  C  C388  1  0.65564152  0.78896950  0.40851372  1
  C  C389  1  0.46923550  0.40889970  0.46948017  1
  C  C390  1  0.45728527  0.38359850  0.45730109  1
  C  C391  1  0.44504096  0.35676579  0.44413848  1
  C  C392  1  0.43475414  0.33164420  0.43139183  1
  C  C393  1  0.42308046  0.30467175  0.41820043  1
  C  C394  1  0.41184122  0.27927044  0.40598979  1
  C  C395  1  0.45613520  0.47733530  0.57161756  1
  C  C396  1  0.43293631  0.46456958  0.58385419  1
  C  C397  1  0.40623351  0.45359072  0.59604528  1
  C  C398  1  0.37826251  0.44594996  0.60595173  1
  C  C399  1  0.35006489  0.43416908  0.61668473  1
  C  C400  1  0.32360136  0.42310806  0.62677699  1
  C  C401  1  0.47528779  0.61208037  0.45309802  1
  C  C402  1  0.45807307  0.63274274  0.43996900  1
  C  C403  1  0.44071687  0.65636954  0.42657547  1
  C  C404  1  0.42688213  0.68277996  0.41563503  1
  C  C405  1  0.41222436  0.71084624  0.40404750  1
  C  C406  1  0.39845661  0.73723654  0.39317387  1
  C  C407  1  0.61917832  0.59069945  0.57107731  1
  C  C408  1  0.64229916  0.60645258  0.58275774  1
  C  C409  1  0.66879502  0.62150982  0.59436028  1
  C  C410  1  0.69643883  0.63397881  0.60361156  1
  C  C411  1  0.72545473  0.64808356  0.61333198  1
  C  C412  1  0.75268410  0.66132167  0.62246600  1
  C  C413  1  0.95596747  0.04461723  0.07716385  1
  C  C414  1  0.94431445  0.03811904  0.09986775  1
  C  C415  1  0.96449625  0.01931882  0.11628590  1
  C  C416  1  0.91015717  0.05422852  0.10515457  1
  C  C417  1  0.91979044  0.03807182  0.14279066  1
  C  C418  1  0.89770370  0.05372924  0.12609051  1
  C  C419  1  0.95453048  0.02397133  0.13746634  1
  C  C420  1  0.90558595  0.02814713  0.16470355  1
  C  C421  1  0.01604296  0.09166411  0.93004418  1
  C  C422  1  0.03646077  0.11219750  0.91287996  1
  C  C423  1  0.07454810  0.11200461  0.91031749  1
  C  C424  1  0.01465643  0.13454587  0.89869666  1
  C  C425  1  0.06799566  0.15638627  0.88003802  1
  C  C426  1  0.02985826  0.15570301  0.88234034  1
  C  C427  1  0.08980194  0.13352832  0.89403558  1
  C  C428  1  0.08525041  0.18584397  0.86579377  1
  C  C429  1  0.09024396  -0.00294201  0.08031920  1
  C  C430  1  0.10492710  0.00585390  0.10235250  1
  C  C431  1  0.09187989  0.03540726  0.11532593  1
  C  C432  1  0.13403202  0.98277501  0.11036596  1
  C  C433  1  0.13540284  0.01717515  0.14389228  1
  C  C434  1  0.14835568  0.98745984  0.13095722  1
  C  C435  1  0.10602520  0.03981670  0.13596720  1
  C  C436  1  0.15639074  0.02990961  0.16366215  1
  C  C437  1  0.03502806  0.95312904  0.93688962  1
  C  C438  1  0.01937053  0.94490202  0.91500199  1
  C  C439  1  0.00650745  0.97267139  0.90017760  1
  C  C440  1  0.01794273  0.90650297  0.90898155  1
  C  C441  1  -0.00049803  0.92433287  0.87274417  1
  C  C442  1  0.00925012  0.89627895  0.88808208  1
  C  C443  1  0.99813060  0.96252042  0.87923971  1
  C  C444  1  0.98555209  0.91466501  0.85058584  1
  O  O445  1  0.06182823  0.06440121  0.00840638  1
  O  O446  1  0.98550666  1.00497702  0.00569084  1
  O  O447  1  -0.01023728  0.35188734  0.67027651  1
  O  O448  1  0.08918465  0.27180614  0.74957112  1
  O  O449  1  0.14174766  0.37765518  0.67842446  1
  O  O450  1  0.74007500  0.96291894  0.34321688  1
  O  O451  1  0.74514538  0.14840522  0.33457015  1
  O  O452  1  0.78466066  0.04158801  0.26132345  1
  O  O453  1  0.93925474  0.69493232  0.67996067  1
  O  O454  1  0.03227851  0.77257059  0.75585322  1
  O  O455  1  0.09297690  0.71893203  0.66627264  1
  O  O456  1  0.32362304  0.93056846  0.35030132  1
  O  O457  1  0.24866398  0.02810095  0.27216825  1
  O  O458  1  0.35269532  0.09206725  0.34407540  1
