# generated using pymatgen
data_Zn2H156C233(N2O9)3
_symmetry_space_group_name_H-M   'P 1'
_cell_length_a   61.58375012
_cell_length_b   33.44798077
_cell_length_c   69.85329897
_cell_angle_alpha   95.81908864
_cell_angle_beta   91.19035750
_cell_angle_gamma   112.01073425
_symmetry_Int_Tables_number   1
_chemical_formula_structural   Zn2H156C233(N2O9)3
_chemical_formula_sum   'Zn2 H156 C233 N6 O27'
_cell_volume   132442.91456742
_cell_formula_units_Z   1
loop_
 _symmetry_equiv_pos_site_id
 _symmetry_equiv_pos_as_xyz
  1  'x, y, z'
loop_
 _atom_site_type_symbol
 _atom_site_label
 _atom_site_symmetry_multiplicity
 _atom_site_fract_x
 _atom_site_fract_y
 _atom_site_fract_z
 _atom_site_occupancy
  Zn  Zn0  1  0.07493722  0.56492946  0.74267912  1
  Zn  Zn1  1  0.07444572  0.56000718  0.31450663  1
  H  H2  1  0.10515729  0.03571937  0.63423824  1
  H  H3  1  0.09128760  0.15216238  0.63323512  1
  H  H4  1  0.10441173  0.11183667  0.68760707  1
  H  H5  1  0.10771328  0.13013504  0.42452920  1
  H  H6  1  0.09049393  -0.00724501  0.42233285  1
  H  H7  1  0.10447717  0.05397224  0.37009450  1
  H  H8  1  0.07533865  0.65106711  0.76089630  1
  H  H9  1  0.06941810  0.71601308  0.75036559  1
  H  H10  1  0.06195651  0.65632867  0.69175746  1
  H  H11  1  0.06764277  0.59329798  0.70446935  1
  H  H12  1  0.02541790  0.56231747  0.73006374  1
  H  H13  1  0.98807268  0.55353690  0.74522929  1
  H  H14  1  0.01902462  0.53346779  0.79765578  1
  H  H15  1  0.05537198  0.54322235  0.78030798  1
  H  H16  1  0.07415708  0.47520355  0.29643743  1
  H  H17  1  0.06906284  0.40213943  0.30639686  1
  H  H18  1  0.06162100  0.45110022  0.36432329  1
  H  H19  1  0.06600412  0.52140269  0.35206233  1
  H  H20  1  0.02437648  0.50227411  0.32210716  1
  H  H21  1  0.98615274  0.46404615  0.30345489  1
  H  H22  1  0.01756903  0.53238229  0.25549090  1
  H  H23  1  0.05541711  0.56352013  0.27533342  1
  H  H24  1  0.78183403  0.35177023  0.13402993  1
  H  H25  1  0.77982600  0.26045793  0.11873651  1
  H  H26  1  0.75213594  0.22753711  0.08991888  1
  H  H27  1  0.72924846  0.23441698  0.06215935  1
  H  H28  1  0.74755574  0.37009531  0.08200848  1
  H  H29  1  0.77177014  0.36451743  0.10906226  1
  H  H30  1  0.70098831  0.24883639  0.04355786  1
  H  H31  1  0.72901941  0.26552156  0.03400335  1
  H  H32  1  0.75447739  0.32646618  0.99627516  1
  H  H33  1  0.74133247  0.27462516  0.00396094  1
  H  H34  1  0.75452916  0.32088079  0.02115102  1
  H  H35  1  0.67965697  0.27953028  0.05421682  1
  H  H36  1  0.65710841  0.24936837  0.03627761  1
  H  H37  1  0.65910421  0.30095052  0.04712829  1
  H  H38  1  0.69412243  0.37888003  0.97296616  1
  H  H39  1  0.67816838  0.39133976  0.99186838  1
  H  H40  1  0.66551685  0.34273088  0.97604748  1
  H  H41  1  0.64473544  0.32311403  0.00048923  1
  H  H42  1  0.64354876  0.30994861  0.02460708  1
  H  H43  1  0.61443733  0.32035981  0.01387817  1
  H  H44  1  0.58058103  0.34133430  0.01339461  1
  H  H45  1  0.62531559  0.47450883  0.03222312  1
  H  H46  1  0.66021724  0.45362797  0.03191684  1
  H  H47  1  0.58306405  0.45588228  0.02809841  1
  H  H48  1  0.55046113  0.36242274  0.01190437  1
  H  H49  1  0.72529665  0.38586508  0.97633964  1
  H  H50  1  0.74657679  0.36503807  0.98241355  1
  H  H51  1  0.75139068  0.40448454  0.95805283  1
  H  H52  1  0.78050392  0.42036400  0.93366942  1
  H  H53  1  0.74919138  0.28724993  0.90718654  1
  H  H54  1  0.72040035  0.27113329  0.93234160  1
  H  H55  1  0.79735603  0.40227530  0.90807622  1
  H  H56  1  0.77826699  0.30924265  0.88620449  1
  H  H57  1  0.32299969  0.80844677  0.92727707  1
  H  H58  1  0.29828240  0.70996650  0.92942330  1
  H  H59  1  0.31010218  0.67405502  0.94960774  1
  H  H60  1  0.33387052  0.66913332  0.97710852  1
  H  H61  1  0.37566270  0.80601918  0.97960449  1
  H  H62  1  0.35181762  0.81122039  0.95173188  1
  H  H63  1  0.36128105  0.67067581  0.99583262  1
  H  H64  1  0.34165421  0.68889852  0.00875076  1
  H  H65  1  0.34589169  0.74923863  0.05494091  1
  H  H66  1  0.33227122  0.69899532  0.04054278  1
  H  H67  1  0.34532083  0.74723381  0.02958159  1
  H  H68  1  0.39244750  0.67687440  0.99192499  1
  H  H69  1  0.39819396  0.63949075  0.00541428  1
  H  H70  1  0.42078638  0.68958983  0.00227677  1
  H  H71  1  0.42045582  0.75423180  0.08641788  1
  H  H72  1  0.44215737  0.76187763  0.06923070  1
  H  H73  1  0.42869721  0.71098008  0.07777013  1
  H  H74  1  0.43868508  0.68678290  0.05171399  1
  H  H75  1  0.43232001  0.67239790  0.02651815  1
  H  H76  1  0.46323358  0.66750382  0.03304123  1
  H  H77  1  0.50340827  0.66993914  0.03513088  1
  H  H78  1  0.53030361  0.80970376  0.03693654  1
  H  H79  1  0.48932952  0.80718134  0.03491624  1
  H  H80  1  0.55801945  0.77369545  0.03877559  1
  H  H81  1  0.53952614  0.67173918  0.03659011  1
  H  H82  1  0.39865610  0.78621029  0.08195408  1
  H  H83  1  0.36925782  0.77407356  0.07388452  1
  H  H84  1  0.37772582  0.81199413  0.10435113  1
  H  H85  1  0.35690069  0.82912407  0.13148740  1
  H  H86  1  0.32790905  0.69289630  0.14003210  1
  H  H87  1  0.35034174  0.67730486  0.11391272  1
  H  H88  1  0.32684617  0.80437678  0.15651090  1
  H  H89  1  0.32076977  0.71257579  0.16529379  1
  H  H90  1  0.93256790  0.42948251  0.78430614  1
  H  H91  1  0.94776612  0.55198608  0.81916660  1
  H  H92  1  0.98293680  0.58571435  0.80112366  1
  H  H93  1  0.96702178  0.46409965  0.76542487  1
  H  H94  1  0.85356136  0.45637211  0.87130405  1
  H  H95  1  0.82026416  0.42829436  0.89088797  1
  H  H96  1  0.80176399  0.30030374  0.85924909  1
  H  H97  1  0.83496123  0.33023056  0.83889830  1
  H  H98  1  0.94428714  0.50429065  0.23308664  1
  H  H99  1  0.93521609  0.37661620  0.24712345  1
  H  H100  1  0.96883007  0.40904109  0.27129963  1
  H  H101  1  0.97900494  0.53631668  0.25619989  1
  H  H102  1  0.83651688  0.29040012  0.17579234  1
  H  H103  1  0.80379281  0.26776611  0.15116819  1
  H  H104  1  0.81778427  0.40244170  0.14553937  1
  H  H105  1  0.85064308  0.42473024  0.17009570  1
  H  H106  1  0.16808338  0.58893792  0.80895459  1
  H  H107  1  0.16180836  0.71333802  0.81255203  1
  H  H108  1  0.12734418  0.68243076  0.78900122  1
  H  H109  1  0.13507968  0.55932593  0.78380268  1
  H  H110  1  0.25951013  0.80192156  0.88146828  1
  H  H111  1  0.29208905  0.82697566  0.90638168  1
  H  H112  1  0.29599250  0.70026327  0.89885941  1
  H  H113  1  0.26152509  0.67388384  0.87594275  1
  H  H114  1  0.16648643  0.55916789  0.24994986  1
  H  H115  1  0.16372330  0.68498664  0.26534741  1
  H  H116  1  0.13015496  0.65213939  0.28535459  1
  H  H117  1  0.13143167  0.52588391  0.26828894  1
  H  H118  1  0.26318171  0.77835398  0.20569403  1
  H  H119  1  0.29550949  0.79901110  0.18410611  1
  H  H120  1  0.29172587  0.66679192  0.17740405  1
  H  H121  1  0.25895623  0.64632215  0.19844952  1
  H  H122  1  0.53709187  0.58213551  0.05773845  1
  H  H123  1  0.53706543  0.50688518  0.04670576  1
  H  H124  1  0.57534232  0.55897152  -0.00196844  1
  H  H125  1  0.57436825  0.63312349  0.01005183  1
  H  H126  1  0.11534300  0.35142821  0.67372843  1
  H  H127  1  0.10734519  0.41751178  0.68469690  1
  H  H128  1  0.05705672  0.34495476  0.72263280  1
  H  H129  1  0.06504652  0.27886384  0.71160189  1
  H  H130  1  0.12449441  0.90468168  0.70371685  1
  H  H131  1  0.11236868  0.83004984  0.71376417  1
  H  H132  1  0.04256656  0.79777952  0.68884387  1
  H  H133  1  0.05466714  0.87236188  0.67879294  1
  H  H134  1  0.07371594  0.81174873  0.39247246  1
  H  H135  1  0.06529143  0.73371314  0.38105254  1
  H  H136  1  0.09647611  0.77054104  0.32768292  1
  H  H137  1  0.10497337  0.84850967  0.33914118  1
  H  H138  1  0.06215224  0.20955179  0.34661739  1
  H  H139  1  0.05123736  0.26872160  0.33568260  1
  H  H140  1  0.10289863  0.36166099  0.37703142  1
  H  H141  1  0.11388897  0.30244547  0.38790261  1
  H  H142  1  0.13757451  0.07505467  0.49167698  1
  H  H143  1  0.13697639  0.12753540  0.49080998  1
  H  H144  1  0.14292104  0.15306188  0.52289987  1
  H  H145  1  0.14787143  0.10613646  0.52850611  1
  H  H146  1  0.11511634  0.03212118  0.51793614  1
  H  H147  1  0.08916417  0.03182007  0.50611459  1
  H  H148  1  0.13739127  0.08804611  0.57842785  1
  H  H149  1  0.13095611  0.13540504  0.58374864  1
  H  H150  1  0.09012371  0.09678493  0.57218586  1
  H  H151  1  0.09224792  0.04525732  0.57287286  1
  H  H152  1  0.08392006  0.01978618  0.53989055  1
  H  H153  1  0.07878140  0.06664649  0.53448479  1
  H  H154  1  0.11109364  0.14021723  0.54436510  1
  H  H155  1  0.13729605  0.14199151  0.55636412  1
  H  H156  1  0.09309022  0.09123838  0.48095399  1
  H  H157  1  0.09605607  0.04034827  0.47822425  1
  C  C158  1  0.10518649  0.07084163  0.66188733  1
  C  C159  1  0.10407079  0.06495547  0.64186403  1
  C  C160  1  0.10083123  0.09648780  0.63205753  1
  C  C161  1  0.09580418  0.13006929  0.64145636  1
  C  C162  1  0.09820159  0.13621523  0.66151648  1
  C  C163  1  0.10297192  0.10684231  0.67190235  1
  C  C164  1  0.09025403  -0.00073905  0.66937794  1
  C  C165  1  0.12220631  0.09214039  0.60470379  1
  C  C166  1  0.10766634  0.21241798  0.66715017  1
  C  C167  1  0.10574706  0.09540327  0.39630652  1
  C  C168  1  0.10472638  0.09892268  0.41623983  1
  C  C169  1  0.09917218  0.06150398  0.42512729  1
  C  C170  1  0.09538596  0.02173217  0.41491827  1
  C  C171  1  0.09932555  0.02047151  0.39537753  1
  C  C172  1  0.10342380  0.05662134  0.38568641  1
  C  C173  1  0.09017551  0.14623486  0.38907359  1
  C  C174  1  0.11382128  0.08244097  0.45794609  1
  C  C175  1  0.10841547  0.95751880  0.39263036  1
  C  C176  1  0.10683243  0.60122634  0.77160687  1
  C  C177  1  0.07089962  0.49375083  0.72692738  1
  C  C178  1  0.07270963  0.65384299  0.74565770  1
  C  C179  1  0.06969093  0.68989268  0.73976467  1
  C  C180  1  0.06736305  0.69338135  0.71994088  1
  C  C181  1  0.06547926  0.65668286  0.70716372  1
  C  C182  1  0.06848260  0.62159348  0.71417990  1
  C  C183  1  0.02351926  0.55595363  0.74507811  1
  C  C184  1  0.00233850  0.55008485  0.75352214  1
  C  C185  1  0.00018298  0.54136634  0.77269191  1
  C  C186  1  0.01979484  0.53999575  0.78263310  1
  C  C187  1  0.04008943  0.54530745  0.77301409  1
  C  C188  1  0.10650934  0.56556679  0.28855754  1
  C  C189  1  0.07094950  0.62600396  0.32975571  1
  C  C190  1  0.07132262  0.46833729  0.31134333  1
  C  C191  1  0.06900029  0.42845650  0.31698266  1
  C  C192  1  0.06707460  0.42192202  0.33660633  1
  C  C193  1  0.06480088  0.45556136  0.34922926  1
  C  C194  1  0.06698335  0.49439430  0.34244951  1
  C  C195  1  0.02255532  0.50646710  0.30694680  1
  C  C196  1  0.00104047  0.48535426  0.29643188  1
  C  C197  1  -0.00148709  0.49495162  0.27764521  1
  C  C198  1  0.01835536  0.52460621  0.27022209  1
  C  C199  1  0.03963510  0.54170788  0.28116229  1
  C  C200  1  0.78825104  0.32533222  0.13247944  1
  C  C201  1  0.77793192  0.29152559  0.11837077  1
  C  C202  1  0.76376210  0.29502291  0.10217537  1
  C  C203  1  0.75151158  0.25915443  0.08822248  1
  C  C204  1  0.73858567  0.26300484  0.07242358  1
  C  C205  1  0.73736962  0.30321993  0.07008040  1
  C  C206  1  0.74882191  0.33899073  0.08378620  1
  C  C207  1  0.76214040  0.33527025  0.09931923  1
  C  C208  1  0.71524641  0.27694455  0.03888997  1
  C  C209  1  0.70652015  0.29740102  0.02378057  1
  C  C210  1  0.68492018  0.30258557  0.02606547  1
  C  C211  1  0.67751051  0.32472421  0.01278599  1
  C  C212  1  0.69135765  0.34184489  0.99742028  1
  C  C213  1  0.71310576  0.33718419  0.99566723  1
  C  C214  1  0.72081938  0.31470896  0.00866194  1
  C  C215  1  0.74385085  0.30906022  0.00738789  1
  C  C216  1  0.66954941  0.28240999  0.04168718  1
  C  C217  1  0.68203743  0.36484990  0.98393485  1
  C  C218  1  0.65469159  0.33078675  0.01459559  1
  C  C219  1  0.63965745  0.38605430  0.02239271  1
  C  C220  1  0.61723392  0.35443792  0.01754157  1
  C  C221  1  0.59785450  0.36624741  0.01775241  1
  C  C222  1  0.60040249  0.40932313  0.02336422  1
  C  C223  1  0.62318368  0.44086338  0.02819940  1
  C  C224  1  0.64268463  0.42931779  0.02786982  1
  C  C225  1  0.57969240  0.42147861  0.02428006  1
  C  C226  1  0.55799331  0.39288221  0.02124729  1
  C  C227  1  0.72763482  0.35607152  0.97941633  1
  C  C228  1  0.73524997  0.33577054  0.94755919  1
  C  C229  1  0.75142553  0.37827441  0.94744315  1
  C  C230  1  0.76744048  0.38747795  0.93335166  1
  C  C231  1  0.76755876  0.35525689  0.91861603  1
  C  C232  1  0.75002768  0.31300861  0.91841508  1
  C  C233  1  0.73383926  0.30365694  0.93257842  1
  C  C234  1  0.78562277  0.36834009  0.90490721  1
  C  C235  1  0.78942702  0.34349344  0.88963188  1
  C  C236  1  0.31192140  0.77454252  0.92274706  1
  C  C237  1  0.31244472  0.74174700  0.93266251  1
  C  C238  1  0.32835624  0.74298749  0.94867289  1
  C  C239  1  0.32429575  0.70332275  0.95625377  1
  C  C240  1  0.33757565  0.70057300  0.97195423  1
  C  C241  1  0.35558780  0.73792519  0.98077693  1
  C  C242  1  0.36099466  0.77733854  0.97304392  1
  C  C243  1  0.34750563  0.78002282  0.95728799  1
  C  C244  1  0.36030363  0.69721091  0.00599434  1
  C  C245  1  0.37553129  0.70442421  0.02411357  1
  C  C246  1  0.39593555  0.69485134  0.02304400  1
  C  C247  1  0.41101529  0.70474140  0.03982185  1
  C  C248  1  0.40680598  0.72594379  0.05710909  1
  C  C249  1  0.38622269  0.73525035  0.05797986  1
  C  C250  1  0.37019865  0.72335731  0.04162010  1
  C  C251  1  0.34744532  0.73020150  0.04174183  1
  C  C252  1  0.40204087  0.67434003  0.00481964  1
  C  C253  1  0.42525525  0.73897837  0.07345902  1
  C  C254  1  0.43345240  0.69722634  0.03850048  1
  C  C255  1  0.47391814  0.73763217  0.03486665  1
  C  C256  1  0.47777587  0.69894068  0.03435379  1
  C  C257  1  0.50063178  0.70030585  0.03521980  1
  C  C258  1  0.51983704  0.74002086  0.03639543  1
  C  C259  1  0.51553556  0.77868385  0.03614668  1
  C  C260  1  0.49270641  0.77745326  0.03512693  1
  C  C261  1  0.54408830  0.74143711  0.03776793  1
  C  C262  1  0.54928393  0.70653307  0.03804211  1
  C  C263  1  0.38220715  0.75942637  0.07620339  1
  C  C264  1  0.36391735  0.74266327  0.10638797  1
  C  C265  1  0.36630708  0.78565894  0.11186744  1
  C  C266  1  0.35466794  0.79535698  0.12748181  1
  C  C267  1  0.34017619  0.76276272  0.13827686  1
  C  C268  1  0.33907127  0.71992458  0.13280277  1
  C  C269  1  0.35128027  0.71043420  0.11759027  1
  C  C270  1  0.32663223  0.77151480  0.15394627  1
  C  C271  1  0.31536971  0.74016256  0.16542560  1
  C  C272  1  0.94346043  0.46387458  0.78764561  1
  C  C273  1  0.93781308  0.48813302  0.80327365  1
  C  C274  1  0.95225386  0.53280073  0.80749844  1
  C  C275  1  0.97196282  0.55149857  0.79748275  1
  C  C276  1  0.97740247  0.52662717  0.78234860  1
  C  C277  1  0.96259435  0.48296508  0.77723268  1
  C  C278  1  0.91846554  0.46821558  0.81392025  1
  C  C279  1  0.90152398  0.45039113  0.82318213  1
  C  C280  1  0.88308279  0.43100555  0.83325898  1
  C  C281  1  0.86614175  0.41345276  0.84257041  1
  C  C282  1  0.84700518  0.39550260  0.85368459  1
  C  C283  1  0.84205575  0.42210108  0.86879539  1
  C  C284  1  0.82342363  0.40574924  0.88000729  1
  C  C285  1  0.80849158  0.36095039  0.87729353  1
  C  C286  1  0.81313416  0.33452088  0.86195821  1
  C  C287  1  0.83166108  0.35109950  0.85055741  1
  C  C288  1  0.94999292  0.48347418  0.24125531  1
  C  C289  1  0.93708167  0.43792574  0.23830958  1
  C  C290  1  0.94458112  0.41173601  0.24950105  1
  C  C291  1  0.96335300  0.42987183  0.26299429  1
  C  C292  1  0.97652571  0.47486009  0.26507038  1
  C  C293  1  0.96948977  0.50126917  0.25397899  1
  C  C294  1  0.91769241  0.41984875  0.22491242  1
  C  C295  1  0.90074326  0.40461522  0.21314643  1
  C  C296  1  0.88228804  0.38806215  0.20032909  1
  C  C297  1  0.86539599  0.37349780  0.18849187  1
  C  C298  1  0.84639601  0.35927343  0.17470975  1
  C  C299  1  0.83246832  0.31479379  0.16885914  1
  C  C300  1  0.81407057  0.30226606  0.15499611  1
  C  C301  1  0.80805219  0.33356350  0.14627182  1
  C  C302  1  0.82184325  0.37785189  0.15223473  1
  C  C303  1  0.84029247  0.39035494  0.16580957  1
  C  C304  1  0.15935217  0.60951377  0.80419802  1
  C  C305  1  0.16753080  0.65344944  0.81261789  1
  C  C306  1  0.15564099  0.67938007  0.80642241  1
  C  C307  1  0.13644168  0.66214979  0.79328683  1
  C  C308  1  0.12895264  0.61893513  0.78513620  1
  C  C309  1  0.14081353  0.59287072  0.79032130  1
  C  C310  1  0.18655408  0.67107628  0.82643474  1
  C  C311  1  0.20322436  0.68697819  0.83846533  1
  C  C312  1  0.22138241  0.70428819  0.85156467  1
  C  C313  1  0.23811362  0.71975052  0.86355881  1
  C  C314  1  0.25725396  0.73542509  0.87724220  1
  C  C315  1  0.26707156  0.77932876  0.88592338  1
  C  C316  1  0.28534014  0.79326623  0.89988377  1
  C  C317  1  0.29498565  0.76419866  0.90643555  1
  C  C318  1  0.28680710  0.72161333  0.89639474  1
  C  C319  1  0.26825984  0.70739386  0.88279543  1
  C  C320  1  0.15819290  0.57938839  0.25742161  1
  C  C321  1  0.16770153  0.62468280  0.25602734  1
  C  C322  1  0.15677980  0.65014969  0.26633245  1
  C  C323  1  0.13794455  0.63179594  0.27735755  1
  C  C324  1  0.12839655  0.58680930  0.27770411  1
  C  C325  1  0.13863502  0.56077561  0.26770041  1
  C  C326  1  0.18700266  0.64378283  0.24505626  1
  C  C327  1  0.20375070  0.66101440  0.23543328  1
  C  C328  1  0.22201119  0.67980182  0.22493887  1
  C  C329  1  0.23876344  0.69603044  0.21515857  1
  C  C330  1  0.25783765  0.71037170  0.20341598  1
  C  C331  1  0.26918206  0.75371440  0.19903397  1
  C  C332  1  0.28749694  0.76519513  0.18681127  1
  C  C333  1  0.29604099  0.73403762  0.17821212  1
  C  C334  1  0.28529109  0.69131216  0.18331395  1
  C  C335  1  0.26695342  0.67977541  0.19515037  1
  C  C336  1  0.55465270  0.60716351  0.03340839  1
  C  C337  1  0.54474332  0.57541198  0.04463960  1
  C  C338  1  0.54493759  0.53391209  0.03833954  1
  C  C339  1  0.55516430  0.52832139  0.02109432  1
  C  C340  1  0.56649982  0.56368341  0.01087317  1
  C  C341  1  0.56613229  0.60476732  0.01735837  1
  C  C342  1  0.55454001  0.48568066  0.01352370  1
  C  C343  1  0.10008115  0.24367923  0.67719141  1
  C  C344  1  0.09470353  0.27305194  0.68474941  1
  C  C345  1  0.09034449  0.31046348  0.69163698  1
  C  C346  1  0.10247402  0.35046456  0.68431927  1
  C  C347  1  0.09809995  0.38690975  0.69039558  1
  C  C348  1  0.08147124  0.38565524  0.70426613  1
  C  C349  1  0.06967818  0.34588013  0.71182861  1
  C  C350  1  0.07404137  0.30933423  0.70572709  1
  C  C351  1  0.07723574  0.42337702  0.71070521  1
  C  C352  1  0.07398409  0.45546289  0.71777556  1
  C  C353  1  0.09530119  0.96696733  0.67831942  1
  C  C354  1  0.09644360  0.93539617  0.68513983  1
  C  C355  1  0.09033912  0.89322502  0.69083938  1
  C  C356  1  0.10666472  0.88095332  0.70065263  1
  C  C357  1  0.09995807  0.83992186  0.70612055  1
  C  C358  1  0.07665178  0.80913427  0.70198179  1
  C  C359  1  0.06038497  0.82155511  0.69200965  1
  C  C360  1  0.06703552  0.86250523  0.68652886  1
  C  C361  1  0.07029834  0.76712419  0.70764544  1
  C  C362  1  0.06758353  0.73202488  0.71319826  1
  C  C363  1  0.10138373  0.91579837  0.38185029  1
  C  C364  1  0.09595842  0.87878545  0.37388044  1
  C  C365  1  0.09020645  0.83485558  0.36661105  1
  C  C366  1  0.07857495  0.80203200  0.37837423  1
  C  C367  1  0.07387403  0.75929841  0.37211447  1
  C  C368  1  0.08033852  0.74742944  0.35375509  1
  C  C369  1  0.09159320  0.78016996  0.34179680  1
  C  C370  1  0.09633442  0.82297585  0.34809147  1
  C  C371  1  0.07545977  0.70324226  0.34772017  1
  C  C372  1  0.07293383  0.66736747  0.33980178  1
  C  C373  1  0.09427571  0.18551276  0.38087689  1
  C  C374  1  0.09412975  0.21827282  0.37452317  1
  C  C375  1  0.08902343  0.25246861  0.36772208  1
  C  C376  1  0.07107606  0.24312683  0.35295299  1
  C  C377  1  0.06501838  0.27561064  0.34698409  1
  C  C378  1  0.07658860  0.31909747  0.35545835  1
  C  C379  1  0.09431253  0.32823293  0.37041231  1
  C  C380  1  0.10040566  0.29574583  0.37637244  1
  C  C381  1  0.07110581  0.35294689  0.34895245  1
  C  C382  1  0.06806048  0.38402932  0.34322285  1
  C  C383  1  0.10560631  0.07537060  0.47788894  1
  C  C384  1  0.12607673  0.09370229  0.49276271  1
  C  C385  1  0.13424992  0.11985188  0.52676888  1
  C  C386  1  0.10346695  0.05041083  0.51702646  1
  C  C387  1  0.12402626  0.09987353  0.58385306  1
  C  C388  1  0.10211747  0.07924815  0.57040739  1
  C  C389  1  0.09248300  0.05305803  0.53605337  1
  C  C390  1  0.12302499  0.12259131  0.54557666  1
  N  N391  1  0.07301013  0.62083344  0.73303778  1
  N  N392  1  0.04204646  0.55332901  0.75458764  1
  N  N393  1  0.07096143  0.50121046  0.32397386  1
  N  N394  1  0.04186914  0.53220252  0.29911184  1
  N  N395  1  0.11661688  0.09365539  0.51162938  1
  N  N396  1  0.11027280  0.07929531  0.55106836  1
  O  O397  1  0.10895392  0.03969728  0.67235270  1
  O  O398  1  0.10221270  0.09528836  0.61183855  1
  O  O399  1  0.09469035  0.17074787  0.67220080  1
  O  O400  1  0.07177035  -0.00632920  0.66088168  1
  O  O401  1  0.13782114  0.08866521  0.61451743  1
  O  O402  1  0.12359109  0.21964755  0.65645752  1
  O  O403  1  0.10891646  0.13210208  0.38659220  1
  O  O404  1  0.09510715  0.06180882  0.44493607  1
  O  O405  1  0.09722706  0.98209108  0.38425754  1
  O  O406  1  0.07246698  0.12563415  0.39657592  1
  O  O407  1  0.13382536  0.10316062  0.45407555  1
  O  O408  1  0.12276612  0.97194093  0.40622280  1
  O  O409  1  0.08863235  0.60493676  0.77781449  1
  O  O410  1  0.10865317  0.58485490  0.75463758  1
  O  O411  1  0.07032271  0.49798175  0.74518804  1
  O  O412  1  0.07010097  0.52290047  0.71666438  1
  O  O413  1  0.08964295  0.53460384  0.27989354  1
  O  O414  1  0.10757535  0.58235554  0.30612844  1
  O  O415  1  0.07294305  0.62385510  0.31166079  1
  O  O416  1  0.06831627  0.59408762  0.33944380  1
  O  O417  1  0.72479468  0.31012964  0.05539497  1
  O  O418  1  0.72048033  0.32493880  0.96205877  1
  O  O419  1  0.65908529  0.37589278  0.02174523  1
  O  O420  1  0.36847860  0.73713004  0.99670784  1
  O  O421  1  0.37387359  0.72999182  0.09085444  1
  O  O422  1  0.45192946  0.73803790  0.03507751  1
  O  O423  1  0.56008454  0.47107009  -0.00077516  1
