# generated using pymatgen
data_H90C183O
_symmetry_space_group_name_H-M   'P 1'
_cell_length_a   30.46303259
_cell_length_b   31.68833205
_cell_length_c   69.27578910
_cell_angle_alpha   88.81409641
_cell_angle_beta   84.06631787
_cell_angle_gamma   65.94301350
_symmetry_Int_Tables_number   1
_chemical_formula_structural   H90C183O
_chemical_formula_sum   'H90 C183 O1'
_cell_volume   60720.78582688
_cell_formula_units_Z   1
loop_
 _symmetry_equiv_pos_site_id
 _symmetry_equiv_pos_as_xyz
  1  'x, y, z'
loop_
 _atom_site_type_symbol
 _atom_site_label
 _atom_site_symmetry_multiplicity
 _atom_site_fract_x
 _atom_site_fract_y
 _atom_site_fract_z
 _atom_site_occupancy
  H  H0  1  0.20003401  0.02557491  0.73071173  1
  H  H1  1  0.19678673  0.14762253  0.76518322  1
  H  H2  1  0.19645378  0.21610892  0.78226330  1
  H  H3  1  0.20620667  0.27937683  0.72720532  1
  H  H4  1  0.20781038  0.21021390  0.71023599  1
  H  H5  1  0.18399485  0.10754934  0.67964694  1
  H  H6  1  0.15431455  0.11657745  0.61413724  1
  H  H7  1  0.14994033  0.11185318  0.57897765  1
  H  H8  1  0.17066683  0.96816798  0.58491461  1
  H  H9  1  0.18512085  0.97169082  0.61888744  1
  H  H10  1  0.18356201  0.97255424  0.67664842  1
  H  H11  1  0.20553438  0.83842390  0.70864256  1
  H  H12  1  0.20120564  0.77232914  0.72759668  1
  H  H13  1  0.19467905  0.84429364  0.78070048  1
  H  H14  1  0.19712548  0.91083612  0.76162710  1
  H  H15  1  0.01682022  0.08232357  0.29905297  1
  H  H16  1  0.99294425  0.96957202  0.26658716  1
  H  H17  1  0.99127905  0.90125058  0.25004949  1
  H  H18  1  0.02991004  0.82226636  0.30170622  1
  H  H19  1  0.03123878  0.89074087  0.31819325  1
  H  H20  1  0.02636494  0.00315757  0.35077664  1
  H  H21  1  0.02325011  0.01005143  0.41680260  1
  H  H22  1  0.02285939  0.01505167  0.45262610  1
  H  H23  1  0.06013002  0.13272648  0.44628688  1
  H  H24  1  0.05253330  0.13240024  0.41100935  1
  H  H25  1  0.02769093  0.13793249  0.35341733  1
  H  H26  1  0.03303916  0.26114654  0.31977851  1
  H  H27  1  0.02742558  0.33108768  0.30116133  1
  H  H28  1  0.99394599  0.27505187  0.25132031  1
  H  H29  1  -0.00190575  0.20599666  0.27020926  1
  H  H30  1  0.13770677  0.57435235  0.88282923  1
  H  H31  1  0.19577157  0.45785137  0.85704099  1
  H  H32  1  0.23141467  0.55504785  0.83988014  1
  H  H33  1  0.19077691  0.59667350  0.85717360  1
  H  H34  1  0.23350370  0.47276272  0.83949322  1
  H  H35  1  0.13965311  0.51779813  0.88280748  1
  H  H36  1  0.09992032  0.62974505  0.85505094  1
  H  H37  1  0.07660501  0.60996852  0.83643442  1
  H  H38  1  0.10519473  0.49052087  0.85567716  1
  H  H39  1  0.07811768  0.52866582  0.83717751  1
  H  H40  1  0.19377653  0.52818970  0.81135005  1
  H  H41  1  0.13017760  0.55212630  0.81178116  1
  H  H42  1  0.07198610  0.59205473  0.14745114  1
  H  H43  1  0.02108174  0.51314263  0.17324281  1
  H  H44  1  -0.02117536  0.63682908  0.19106990  1
  H  H45  1  0.01618061  0.65195778  0.17344277  1
  H  H46  1  -0.01917947  0.55469983  0.19062912  1
  H  H47  1  0.07388306  0.53550605  0.14747339  1
  H  H48  1  0.10680400  0.61921240  0.17449252  1
  H  H49  1  0.13435813  0.58092461  0.19289522  1
  H  H50  1  0.11208531  0.48001371  0.17505341  1
  H  H51  1  0.13588702  0.49952255  0.19359918  1
  H  H52  1  0.01842747  0.58148175  0.21885933  1
  H  H53  1  0.08196454  0.55750990  0.21864812  1
  H  H54  1  0.92802770  0.58953855  0.96666206  1
  H  H55  1  0.89052054  0.57548219  0.99818746  1
  H  H56  1  0.75202407  0.67740142  0.98519194  1
  H  H57  1  0.79001225  0.69372411  0.95434749  1
  H  H58  1  0.81895530  0.57143776  0.01258864  1
  H  H59  1  0.71329032  0.68384499  0.02833203  1
  H  H60  1  0.76527207  0.56577819  0.98932804  1
  H  H61  1  0.63200501  0.68282849  0.03136296  1
  H  H62  1  0.68121868  0.57191191  0.99012321  1
  H  H63  1  0.83127298  0.71046645  0.05342961  1
  H  H64  1  0.80944602  0.69247614  0.02224834  1
  H  H65  1  0.79923927  0.57070216  0.04690756  1
  H  H66  1  0.82282002  0.58817935  0.07777499  1
  H  H67  1  0.34629748  0.39076339  0.06558031  1
  H  H68  1  0.39980110  0.37027566  0.03494277  1
  H  H69  1  0.43714091  0.48540235  0.04435010  1
  H  H70  1  0.38170635  0.50673742  0.07407498  1
  H  H71  1  0.47390027  0.37598019  0.01715095  1
  H  H72  1  0.44492531  0.49314876  -0.00154561  1
  H  H73  1  0.53740270  0.39185750  0.03560319  1
  H  H74  1  0.49835685  0.53360164  -0.00286217  1
  H  H75  1  0.59091790  0.43256467  0.03411171  1
  H  H76  1  0.33206013  0.51173549  0.97984959  1
  H  H77  1  0.36930517  0.48975287  0.01033999  1
  H  H78  1  0.47771107  0.36600768  0.98189591  1
  H  H79  1  0.43605868  0.38530775  0.95238579  1
  H  H80  1  0.61824877  0.51276376  0.03447325  1
  H  H81  1  0.58895746  0.58840605  0.00307984  1
  H  H82  1  0.57680779  0.52403260  -0.00491338  1
  H  H83  1  0.62528750  0.59314506  0.04225093  1
  H  H84  1  0.13226653  0.10937478  0.55177523  1
  H  H85  1  0.17945670  0.96114422  0.55810651  1
  H  H86  1  0.13665586  0.95677054  0.53043571  1
  H  H87  1  0.05584339  0.13062603  0.47819892  1
  H  H88  1  0.10174997  0.96614042  0.49944028  1
  H  H89  1  0.08439337  -0.01245738  0.46550857  1
  C  C90  1  0.19556646  0.02971521  0.71529394  1
  C  C91  1  0.19306472  0.07067895  0.70655082  1
  C  C92  1  0.19684729  0.10593380  0.71761557  1
  C  C93  1  0.19939596  0.13745335  0.72671775  1
  C  C94  1  0.20091282  0.17508030  0.73658895  1
  C  C95  1  0.19859627  0.17681941  0.75711139  1
  C  C96  1  0.19792780  0.21470574  0.76649706  1
  C  C97  1  0.19821620  0.25391283  0.75603469  1
  C  C98  1  0.20351413  0.25068826  0.73540753  1
  C  C99  1  0.20468351  0.21248792  0.72602157  1
  C  C100  1  0.18622049  0.07596265  0.68685628  1
  C  C101  1  0.18228666  0.04104312  0.67616209  1
  C  C102  1  0.17596532  0.04648726  0.65620447  1
  C  C103  1  0.17198856  0.04762930  0.63879504  1
  C  C104  1  0.16878009  0.04486263  0.61884742  1
  C  C105  1  0.15919505  0.08414501  0.60723839  1
  C  C106  1  0.15550081  0.08152717  0.58772002  1
  C  C107  1  0.15881875  0.03990443  0.57929648  1
  C  C108  1  0.16961983  0.00017518  0.59077836  1
  C  C109  1  0.17588816  0.00236050  0.61001639  1
  C  C110  1  0.18587608  -0.00002924  0.68516642  1
  C  C111  1  0.19245287  0.99386984  0.70481769  1
  C  C112  1  0.19562090  0.95281273  0.71427217  1
  C  C113  1  0.19789119  0.91822538  0.72311090  1
  C  C114  1  0.19916185  0.87976550  0.73390785  1
  C  C115  1  0.20213220  0.83936358  0.72445169  1
  C  C116  1  0.19999977  0.80290242  0.73493562  1
  C  C117  1  0.19549280  0.80429945  0.75560341  1
  C  C118  1  0.19610909  0.84378694  0.76492488  1
  C  C119  1  0.19758934  0.88038409  0.75444634  1
  C  C120  1  0.01990177  0.07885137  0.31458518  1
  C  C121  1  0.02135632  0.03839261  0.32349965  1
  C  C122  1  0.01865172  0.00293628  0.31219551  1
  C  C123  1  0.01623746  0.97151107  0.30297861  1
  C  C124  1  0.01402478  0.93401009  0.29326124  1
  C  C125  1  0.00162709  0.93692098  0.27397121  1
  C  C126  1  0.00126841  0.89917000  0.26480517  1
  C  C127  1  0.01473626  0.85574248  0.27411023  1
  C  C128  1  0.02318867  0.85423326  0.29398220  1
  C  C129  1  0.02334714  0.89206282  0.30315881  1
  C  C130  1  0.02511669  0.03435659  0.34348600  1
  C  C131  1  0.02728786  0.07014892  0.35424254  1
  C  C132  1  0.03109348  0.06761031  0.37442457  1
  C  C133  1  0.03437946  0.06818432  0.39184978  1
  C  C134  1  0.03813358  0.07066376  0.41175954  1
  C  C135  1  0.03063879  0.03685015  0.42362171  1
  C  C136  1  0.03403009  0.03749300  0.44316901  1
  C  C137  1  0.04880901  0.06974254  0.45110613  1
  C  C138  1  0.05179623  0.10620615  0.43980972  1
  C  C139  1  0.04750489  0.10612915  0.42024121  1
  C  C140  1  0.02585869  0.11022578  0.34492857  1
  C  C141  1  0.02218401  0.11507146  0.32506222  1
  C  C142  1  0.02053640  0.15560045  0.31556419  1
  C  C143  1  0.01873836  0.19008607  0.30677298  1
  C  C144  1  0.01638541  0.22901709  0.29612406  1
  C  C145  1  0.02461217  0.26488794  0.30477086  1
  C  C146  1  0.02272744  0.30273160  0.29436014  1
  C  C147  1  0.01514417  0.30576902  0.27432849  1
  C  C148  1  0.00356998  0.27109163  0.26616585  1
  C  C149  1  0.00497680  0.23350445  0.27663602  1
  C  C150  1  0.10172611  0.56041642  0.85945676  1
  C  C151  1  0.14232721  0.54513516  0.87324116  1
  C  C152  1  0.15740922  0.50080053  0.83406104  1
  C  C153  1  0.19780470  0.48624337  0.84803820  1
  C  C154  1  0.15557089  0.58197070  0.83394886  1
  C  C155  1  0.19547082  0.56650119  0.84816908  1
  C  C156  1  0.19267222  0.52724970  0.86134171  1
  C  C157  1  0.10555940  0.59917795  0.84615493  1
  C  C158  1  0.10773790  0.51856887  0.84656171  1
  C  C159  1  0.15994694  0.54055602  0.82117003  1
  C  C160  1  0.11067457  0.54922272  0.17060090  1
  C  C161  1  0.06961620  0.56464000  0.15704180  1
  C  C162  1  0.05692033  0.52763779  0.19632000  1
  C  C163  1  0.01669705  0.54318184  0.18226773  1
  C  C164  1  0.05511725  0.60872846  0.19626030  1
  C  C165  1  0.01444700  0.62347221  0.18245707  1
  C  C166  1  0.01952716  0.58249048  0.16918043  1
  C  C167  1  0.10461017  0.59098878  0.18358326  1
  C  C168  1  0.10681950  0.51049079  0.18393352  1
  C  C169  1  0.05245604  0.56902241  0.20914263  1
  C  C170  1  0.86102577  0.64097304  0.95775178  1
  C  C171  1  0.88949122  0.60884805  0.97100363  1
  C  C172  1  0.86885908  0.60154784  0.98858907  1
  C  C173  1  0.81899970  0.62476615  0.99383037  1
  C  C174  1  0.79073890  0.65850146  0.98137341  1
  C  C175  1  0.81159077  0.66715193  0.96383860  1
  C  C176  1  0.79910711  0.60997639  0.01255073  1
  C  C177  1  0.74676289  0.61864895  0.01185220  1
  C  C178  1  0.70777343  0.65562876  0.02178703  1
  C  C179  1  0.73625744  0.59099522  -0.00103992  1
  C  C180  1  0.65762497  0.61493476  0.01682595  1
  C  C181  1  0.66291805  0.65402016  0.02418271  1
  C  C182  1  0.69036771  0.59187225  0.00043121  1
  C  C183  1  0.83807563  0.64590469  0.06670942  1
  C  C184  1  0.82804508  0.67784969  0.05139909  1
  C  C185  1  0.81481487  0.66799619  0.03398480  1
  C  C186  1  0.80935696  0.62652703  0.03142814  1
  C  C187  1  0.80856245  0.60022709  0.04798619  1
  C  C188  1  0.82250313  0.60946523  0.06514294  1
  C  C189  1  0.35598983  0.45302294  0.07141493  1
  C  C190  1  0.36457450  0.41271025  0.06026550  1
  C  C191  1  0.39509475  0.40102548  0.04317340  1
  C  C192  1  0.42111562  0.42733993  0.03647957  1
  C  C193  1  0.41623091  0.46510092  0.04830411  1
  C  C194  1  0.38479656  0.47742556  0.06517048  1
  C  C195  1  0.45319908  0.41418492  0.01712026  1
  C  C196  1  0.48869743  0.43718286  0.01587312  1
  C  C197  1  0.47760215  0.47850614  0.00580365  1
  C  C198  1  0.52912143  0.42249317  0.02673578  1
  C  C199  1  0.55002116  0.48566020  0.01457785  1
  C  C200  1  0.50767472  0.50154737  0.00507008  1
  C  C201  1  0.55930118  0.44584824  0.02601629  1
  C  C202  1  0.37837475  0.44882769  0.96389242  1
  C  C203  1  0.36238038  0.47830235  0.98072427  1
  C  C204  1  0.38435208  0.46627357  -0.00221753  1
  C  C205  1  0.42539825  0.42466490  -0.00090407  1
  C  C206  1  0.44440997  0.39720858  0.98199547  1
  C  C207  1  0.42116128  0.40817383  0.96518488  1
  C  C208  1  0.05611579  0.57712507  0.87127446  1
  C  C209  1  0.02249105  0.59048094  0.88436367  1
  C  C210  1  0.98662311  0.60500029  0.89851876  1
  C  C211  1  0.95306460  0.61895036  0.91177660  1
  C  C212  1  0.91742901  0.63248200  0.92605626  1
  C  C213  1  0.88508918  0.64295274  0.93971812  1
  C  C214  1  0.98287493  0.59691542  0.15585695  1
  C  C215  1  0.95808164  0.60777635  0.14207238  1
  C  C216  1  0.93244157  0.61948199  0.12692740  1
  C  C217  1  0.90873734  0.63036292  0.11270272  1
  C  C218  1  0.88381604  0.64089989  0.09732207  1
  C  C219  1  0.86120797  0.64819790  0.08289733  1
  C  C220  1  0.22894991  0.51328538  0.87493494  1
  C  C221  1  0.25398323  0.50300844  0.88866402  1
  C  C222  1  0.28006462  0.49195724  0.90372994  1
  C  C223  1  0.30404326  0.48148680  0.91789225  1
  C  C224  1  0.32972451  0.47026393  0.93307862  1
  C  C225  1  0.35349758  0.45987860  0.94719003  1
  C  C226  1  0.15602283  0.53295271  0.15845340  1
  C  C227  1  0.18880909  0.52082262  0.14497312  1
  C  C228  1  0.22343548  0.50764606  0.13024060  1
  C  C229  1  0.25545319  0.49457858  0.11636859  1
  C  C230  1  0.28973517  0.48052994  0.10151259  1
  C  C231  1  0.32155013  0.46745322  0.08771069  1
  C  C232  1  0.57969223  0.51174458  0.01003245  1
  C  C233  1  0.60110019  0.53072350  0.02180514  1
  C  C234  1  0.60550742  0.57244789  0.01622070  1
  C  C235  1  0.62665522  0.59478466  0.02637728  1
  C  C236  1  0.19352534  0.29336970  0.76623452  1
  C  C237  1  0.18757608  0.32694454  0.77651050  1
  C  C238  1  0.18090397  0.36241834  0.78808496  1
  C  C239  1  0.17470793  0.39516671  0.79905983  1
  C  C240  1  0.16866539  0.42998484  0.81088182  1
  C  C241  1  0.16310269  0.46224294  0.82183221  1
  C  C242  1  0.19078549  0.76863141  0.76663154  1
  C  C243  1  0.18496688  0.73891982  0.77704908  1
  C  C244  1  0.17849010  0.70728777  0.78846208  1
  C  C245  1  0.17227575  0.67809801  0.79925936  1
  C  C246  1  0.16584266  0.64677156  0.81087992  1
  C  C247  1  0.15995283  0.61770788  0.82164645  1
  C  C248  1  0.01906776  0.81667897  0.26372017  1
  C  C249  1  0.02488206  0.78318105  0.25342415  1
  C  C250  1  0.03134368  0.74769928  0.24191149  1
  C  C251  1  0.03740285  0.71486843  0.23101463  1
  C  C252  1  0.04370265  0.67977819  0.21931340  1
  C  C253  1  0.04950426  0.64726581  0.20847155  1
  C  C254  1  0.01892283  0.34149224  0.26307327  1
  C  C255  1  0.02523765  0.37096978  0.25265825  1
  C  C256  1  0.03215422  0.40260366  0.24140531  1
  C  C257  1  0.03899833  0.43170711  0.23075012  1
  C  C258  1  0.04607242  0.46292250  0.21925883  1
  C  C259  1  0.05254361  0.49188969  0.20860868  1
  C  C260  1  0.13228225  0.07649966  0.54773785  1
  C  C261  1  0.11561847  0.07189445  0.53055741  1
  C  C262  1  0.11560734  0.02960898  0.52463922  1
  C  C263  1  0.15577140  -0.00694768  0.55182399  1
  C  C264  1  0.13601287  0.98961467  0.53515492  1
  C  C265  1  0.09476468  0.10733808  0.51548042  1
  C  C266  1  0.06377319  0.06091702  0.47061021  1
  C  C267  1  0.06717369  0.09491015  0.48244805  1
  C  C268  1  0.08425983  0.08081873  0.50012936  1
  C  C269  1  0.09649077  0.03489848  0.50616188  1
  C  C270  1  0.09265636  0.00134259  0.49459355  1
  C  C271  1  0.07874730  0.01420253  0.47629678  1
  C  C272  1  0.14907175  0.03693227  0.55932105  1
  O  O273  1  0.08839759  0.14811643  0.51562387  1
