# generated using pymatgen
data_PH98C123O7
_symmetry_space_group_name_H-M   'P 1'
_cell_length_a   40.24116119
_cell_length_b   49.33417030
_cell_length_c   73.03295054
_cell_angle_alpha   95.48741860
_cell_angle_beta   92.93328222
_cell_angle_gamma   103.99610178
_symmetry_Int_Tables_number   1
_chemical_formula_structural   PH98C123O7
_chemical_formula_sum   'P2 H196 C246 O14'
_cell_volume   139625.57438372
_cell_formula_units_Z   2
loop_
 _symmetry_equiv_pos_site_id
 _symmetry_equiv_pos_as_xyz
  1  'x, y, z'
loop_
 _atom_site_type_symbol
 _atom_site_label
 _atom_site_symmetry_multiplicity
 _atom_site_fract_x
 _atom_site_fract_y
 _atom_site_fract_z
 _atom_site_occupancy
  P  P0  1  0.64400412  0.55031877  0.01049241  1
  P  P1  1  0.41450930  0.68389163  0.03358463  1
  H  H2  1  0.08438306  0.10801314  0.58381299  1
  H  H3  1  0.16195025  0.11083328  0.59078939  1
  H  H4  1  0.18603616  0.11890421  0.62206464  1
  H  H5  1  0.18219919  0.12844505  0.65536064  1
  H  H6  1  0.07466825  0.12561867  0.64589126  1
  H  H7  1  0.07823041  0.11621973  0.61239776  1
  H  H8  1  0.17321068  0.14960056  0.68364500  1
  H  H9  1  0.15910426  0.11253945  0.68199243  1
  H  H10  1  0.10782100  0.06413302  0.70782984  1
  H  H11  1  0.14914112  0.07995214  0.70157983  1
  H  H12  1  0.11252491  0.07975114  0.68700738  1
  H  H13  1  0.15858475  0.18426544  0.68993995  1
  H  H14  1  0.18203649  0.19478615  0.71167339  1
  H  H15  1  0.14357651  0.20511721  0.70686019  1
  H  H16  1  0.07258188  0.12336730  0.75874973  1
  H  H17  1  0.06581518  0.15511124  0.75159208  1
  H  H18  1  0.10354727  0.15525802  0.76507862  1
  H  H19  1  0.12467076  0.19342655  0.75292089  1
  H  H20  1  0.13602545  0.20899609  0.73245188  1
  H  H21  1  0.13156478  0.23900510  0.75389816  1
  H  H22  1  0.12001311  0.28048697  0.77042944  1
  H  H23  1  0.01226121  0.25079270  0.75182144  1
  H  H24  1  0.02431390  0.20849388  0.73508168  1
  H  H25  1  0.03179492  0.29600864  0.77163037  1
  H  H26  1  0.10924350  0.31373102  0.78511857  1
  H  H27  1  0.06200668  0.08969684  0.74231268  1
  H  H28  1  0.07551773  0.06809808  0.72507312  1
  H  H29  1  0.04290799  0.04603948  0.74571966  1
  H  H30  1  0.02613380  -0.00168722  0.75490298  1
  H  H31  1  0.13025333  0.00662011  0.77718136  1
  H  H32  1  0.14691578  0.05442511  0.76761602  1
  H  H33  1  0.03834207  0.95962289  0.76856801  1
  H  H34  1  0.11303338  0.96438338  0.78414789  1
  H  H35  1  0.08398262  0.07339254  0.44999664  1
  H  H36  1  0.16211826  0.09983438  0.44929476  1
  H  H37  1  0.18602857  0.10076711  0.41995312  1
  H  H38  1  0.18166288  0.08957760  0.38632836  1
  H  H39  1  0.07334035  0.05175328  0.38712777  1
  H  H40  1  0.07740152  0.06266101  0.42093051  1
  H  H41  1  0.17204210  0.06578219  0.35753280  1
  H  H42  1  0.15905558  0.09764426  0.35823209  1
  H  H43  1  0.10762663  0.12614837  0.32854177  1
  H  H44  1  0.14904275  0.12682440  0.33793688  1
  H  H45  1  0.11257220  0.11209820  0.34959705  1
  H  H46  1  0.15828421  0.02592628  0.34952890  1
  H  H47  1  0.18098647  0.02434182  0.32949049  1
  H  H48  1  0.14204418  -0.00085390  0.33144259  1
  H  H49  1  0.07154441  0.05336284  0.27434151  1
  H  H50  1  0.06446299  0.01882769  0.28095730  1
  H  H51  1  0.10195138  0.03357369  0.27025600  1
  H  H52  1  0.12319301  0.00387365  0.28375223  1
  H  H53  1  0.13590399  0.99333768  0.30504733  1
  H  H54  1  0.13049120  0.96121791  0.28412520  1
  H  H55  1  0.11815957  0.91495837  0.26683718  1
  H  H56  1  0.01066801  0.90182009  0.27723120  1
  H  H57  1  0.02364854  0.94916370  0.29492170  1
  H  H58  1  0.02978095  0.86419880  0.25871963  1
  H  H59  1  0.10717413  0.87829450  0.25133363  1
  H  H60  1  0.06063251  0.08257946  0.29052543  1
  H  H61  1  0.07538677  0.10972810  0.30874132  1
  H  H62  1  0.04195451  0.11957052  0.28618626  1
  H  H63  1  0.02563146  0.16083005  0.27589473  1
  H  H64  1  0.12872584  0.19262646  0.26003867  1
  H  H65  1  0.14494467  0.15124825  0.27069806  1
  H  H66  1  0.03776735  0.20415718  0.26299243  1
  H  H67  1  0.11157770  0.22844737  0.25185445  1
  H  H68  1  0.89121088  0.61068877  0.91933331  1
  H  H69  1  0.94544464  0.62604312  0.90477803  1
  H  H70  1  0.08199685  0.52176517  0.87031822  1
  H  H71  1  0.06902860  0.56739788  0.88128355  1
  H  H72  1  0.99060155  0.59420449  0.84533615  1
  H  H73  1  0.01625259  0.51576762  0.82112986  1
  H  H74  1  0.00470888  0.56179456  0.83141057  1
  H  H75  1  0.05109047  0.67123732  0.87696816  1
  H  H76  1  0.06849776  0.64591663  0.86396494  1
  H  H77  1  0.11986706  0.65118136  0.87679713  1
  H  H78  1  0.16845293  0.63444554  0.88845526  1
  H  H79  1  0.10351156  0.58361548  0.92368310  1
  H  H80  1  0.05458127  0.60210152  0.91303894  1
  H  H81  1  0.97987669  0.64287048  0.84139874  1
  H  H82  1  0.02502189  0.65666038  0.83954628  1
  H  H83  1  0.01565372  0.72992658  0.87436509  1
  H  H84  1  0.02214794  0.77317675  0.85819861  1
  H  H85  1  0.99589539  0.72172319  0.80603669  1
  H  H86  1  0.99021957  0.67869297  0.82204257  1
  H  H87  1  0.98623509  0.61659330  0.88778805  1
  H  H88  1  0.98622279  0.65269747  0.88579219  1
  H  H89  1  0.89019180  0.60852077  0.85111232  1
  H  H90  1  0.83513466  0.59779240  0.86597004  1
  H  H91  1  0.89681667  0.49351113  0.10124665  1
  H  H92  1  0.94815054  0.49835186  0.12227564  1
  H  H93  1  0.08049387  0.65963165  0.16400217  1
  H  H94  1  0.06718475  0.60830139  0.15256045  1
  H  H95  1  0.99080807  0.55146837  0.18388292  1
  H  H96  1  0.01512948  0.64049127  0.20816452  1
  H  H97  1  0.00393307  0.58949151  0.19784832  1
  H  H98  1  0.04810472  0.49802754  0.15505093  1
  H  H99  1  0.06632347  0.53082289  0.16892029  1
  H  H100  1  0.11100616  0.53914907  0.16112133  1
  H  H101  1  0.15965626  0.58044748  0.16001662  1
  H  H102  1  0.11200644  0.60125274  0.11131485  1
  H  H103  1  0.05722767  0.56897771  0.11758826  1
  H  H104  1  0.97989788  0.49822268  0.18715099  1
  H  H105  1  0.02524624  0.50223482  0.19172575  1
  H  H106  1  0.01433866  0.42574873  0.15591419  1
  H  H107  1  0.02130982  0.38504443  0.17242172  1
  H  H108  1  0.99530823  0.42535743  0.22270230  1
  H  H109  1  0.98948178  0.46624295  0.20641237  1
  H  H110  1  0.98354925  0.52755117  0.14160324  1
  H  H111  1  0.98269554  0.49110334  0.14317278  1
  H  H112  1  0.88637843  0.49802854  0.16892432  1
  H  H113  1  0.83404507  0.48978294  0.14743700  1
  H  H114  1  0.60487124  0.57525131  -0.01284786  1
  H  H115  1  0.54177678  0.57077169  0.98298467  1
  H  H116  1  0.52211476  0.49897310  0.01254996  1
  H  H117  1  0.58448860  0.50011654  0.01497758  1
  H  H118  1  0.67628019  0.56063035  0.04722166  1
  H  H119  1  0.69385466  0.53045643  0.06880515  1
  H  H120  1  0.67194123  0.46092326  0.02556029  1
  H  H121  1  0.65122357  0.49026652  0.00433364  1
  H  H122  1  0.71097425  0.56771620  0.99819149  1
  H  H123  1  0.73926862  0.55425691  0.97096563  1
  H  H124  1  0.64696515  0.49070239  0.95085595  1
  H  H125  1  0.61696552  0.50675084  0.97669519  1
  H  H126  1  0.48562467  0.68704075  0.04750191  1
  H  H127  1  0.52349955  0.65534017  0.04148235  1
  H  H128  1  0.44796422  0.60330342  0.00085317  1
  H  H129  1  0.41023685  0.63542550  0.00588791  1
  H  H130  1  0.40511535  0.71644508  0.00324399  1
  H  H131  1  0.36357938  0.70976054  0.97637689  1
  H  H132  1  0.30724325  0.63158834  0.99365593  1
  H  H133  1  0.34843170  0.63809014  0.02051565  1
  H  H134  1  0.37215877  0.70972300  0.05712628  1
  H  H135  1  0.32884573  0.69166329  0.07861589  1
  H  H136  1  0.34849843  0.60973445  0.06951361  1
  H  H137  1  0.39644694  0.62881482  0.05098298  1
  H  H138  1  0.80751764  0.60797133  0.89735968  1
  H  H139  1  0.82883953  0.55830019  0.91327322  1
  H  H140  1  0.78063542  0.58689658  0.93033726  1
  H  H141  1  0.75989055  0.57160969  0.90879084  1
  H  H142  1  0.71283739  0.49543093  0.93716083  1
  H  H143  1  0.72511595  0.55948702  0.93782277  1
  H  H144  1  0.76556057  0.52341789  0.91721544  1
  H  H145  1  0.78632732  0.54007404  0.93855983  1
  H  H146  1  0.84343288  0.52531475  0.10794491  1
  H  H147  1  0.80354766  0.46285377  0.10184322  1
  H  H148  1  0.77441411  0.51270095  0.10141116  1
  H  H149  1  0.79804513  0.51146092  0.08198179  1
  H  H150  1  0.69209321  0.45527037  0.05940526  1
  H  H151  1  0.73767125  0.51465485  0.07295181  1
  H  H152  1  0.76198033  0.46327980  0.07055700  1
  H  H153  1  0.73900944  0.46240773  0.09043805  1
  H  H154  1  0.16228147  0.58791838  0.92802834  1
  H  H155  1  0.21493779  0.63379047  0.91213047  1
  H  H156  1  0.20643739  0.63994521  0.95125189  1
  H  H157  1  0.21846500  0.60799386  0.94804288  1
  H  H158  1  0.31855149  0.68170793  0.95630244  1
  H  H159  1  0.26140351  0.64182632  0.97415552  1
  H  H160  1  0.27303674  0.63303995  0.93466470  1
  H  H161  1  0.26054575  0.66480316  0.93779467  1
  H  H162  1  0.19547914  0.60328178  0.14155277  1
  H  H163  1  0.17591433  0.60752816  0.10073105  1
  H  H164  1  0.24156584  0.63295860  0.12438548  1
  H  H165  1  0.23992573  0.59767242  0.11718709  1
  H  H166  1  0.27685092  0.63917351  0.06649267  1
  H  H167  1  0.29963602  0.63036786  0.10603606  1
  H  H168  1  0.23259613  0.60714423  0.08370723  1
  H  H169  1  0.23571133  0.64260347  0.09122140  1
  H  H170  1  0.49430254  0.58216315  0.99628075  1
  H  H171  1  0.50667848  0.52660628  0.03602789  1
  H  H172  1  0.51832267  0.61508191  0.05320868  1
  H  H173  1  0.57811324  0.58082538  0.06446945  1
  H  H174  1  0.56752303  0.58305806  0.08768315  1
  H  H175  1  0.56028262  0.60833182  0.07330722  1
  H  H176  1  0.49622678  0.57196334  0.09297459  1
  H  H177  1  0.46843520  0.56126235  0.07253341  1
  H  H178  1  0.49243995  0.59649727  0.07723793  1
  H  H179  1  0.54371938  0.52968534  0.06208299  1
  H  H180  1  0.49911363  0.52113605  0.06542555  1
  H  H181  1  0.52952901  0.53403039  0.08440379  1
  H  H182  1  0.01706453  0.37980664  0.80231460  1
  H  H183  1  0.01278887  0.42631859  0.81697983  1
  H  H184  1  0.12229439  0.45084319  0.82921515  1
  H  H185  1  0.12673857  0.40428650  0.81457598  1
  H  H186  1  0.02756323  0.85790798  0.77123624  1
  H  H187  1  0.00950075  0.81091931  0.78256336  1
  H  H188  1  0.05838016  0.84586602  0.83621523  1
  H  H189  1  0.07642770  0.89287762  0.82503583  1
  H  H190  1  0.08897978  0.80258444  0.20075469  1
  H  H191  1  0.08426570  0.75409928  0.18549494  1
  H  H192  1  0.05072979  0.71973173  0.23530405  1
  H  H193  1  0.05537668  0.76807708  0.25062096  1
  H  H194  1  0.05575242  0.27655515  0.20649684  1
  H  H195  1  0.03764333  0.31643379  0.19419289  1
  H  H196  1  0.02874055  0.35132097  0.24939784  1
  H  H197  1  0.04690353  0.31149505  0.26184590  1
  C  C198  1  0.11075407  0.10835762  0.58047539  1
  C  C199  1  0.13647089  0.11190973  0.59472569  1
  C  C200  1  0.13272827  0.11685604  0.61420505  1
  C  C201  1  0.16142244  0.12024184  0.62715592  1
  C  C202  1  0.15920759  0.12536531  0.64603137  1
  C  C203  1  0.12779136  0.12702826  0.65283259  1
  C  C204  1  0.09899055  0.12399677  0.64050249  1
  C  C205  1  0.10124229  0.11881877  0.62159300  1
  C  C206  1  0.15082386  0.13210500  0.68495852  1
  C  C207  1  0.13661889  0.13461530  0.70360473  1
  C  C208  1  0.13637030  0.16151859  0.71221145  1
  C  C209  1  0.11927541  0.16352791  0.72853021  1
  C  C210  1  0.10289798  0.13901062  0.73637402  1
  C  C211  1  0.10336089  0.11228144  0.72761947  1
  C  C212  1  0.12067849  0.10989625  0.71137350  1
  C  C213  1  0.12248666  0.08212055  0.70157176  1
  C  C214  1  0.15586747  0.18760492  0.70477932  1
  C  C215  1  0.08528233  0.14315765  0.75371126  1
  C  C216  1  0.11799840  0.19175158  0.73792905  1
  C  C217  1  0.07837738  0.22038975  0.74398985  1
  C  C218  1  0.10517846  0.24105806  0.75363264  1
  C  C219  1  0.09857160  0.26489795  0.76289395  1
  C  C220  1  0.06496808  0.26921359  0.76272495  1
  C  C221  1  0.03839940  0.24812657  0.75237655  1
  C  C222  1  0.04500044  0.22429610  0.74307188  1
  C  C223  1  0.05819704  0.29392749  0.77237965  1
  C  C224  1  0.08277223  0.31536260  0.78267391  1
  C  C225  1  0.08476396  0.08624439  0.73561598  1
  C  C226  1  0.09661014  0.05259133  0.75506688  1
  C  C227  1  0.06236811  0.03710949  0.75203158  1
  C  C228  1  0.05274816  0.01041111  0.75759286  1
  C  C229  1  0.07662252  -0.00176279  0.76665180  1
  C  C230  1  0.11093724  0.01493307  0.77017483  1
  C  C231  1  0.12055544  0.04180947  0.76470269  1
  C  C232  1  0.06535508  0.97027869  0.77194012  1
  C  C233  1  0.08545845  0.95560149  0.78085945  1
  C  C234  1  0.11057973  0.08297674  0.45547628  1
  C  C235  1  0.13635994  0.08909706  0.44330291  1
  C  C236  1  0.13234421  0.08265801  0.42351460  1
  C  C237  1  0.16112919  0.09008673  0.41287944  1
  C  C238  1  0.15862904  0.08406182  0.39381950  1
  C  C239  1  0.12685005  0.07053024  0.38448219  1
  C  C240  1  0.09794994  0.06262794  0.39448204  1
  C  C241  1  0.10048222  0.06872891  0.41358217  1
  C  C242  1  0.15015468  0.07478532  0.35439893  1
  C  C243  1  0.13614848  0.06706669  0.33453791  1
  C  C244  1  0.13597596  0.04025477  0.32568088  1
  C  C245  1  0.11906964  0.03187342  0.30788351  1
  C  C246  1  0.10230045  0.04975044  0.29896271  1
  C  C247  1  0.10281687  0.07654987  0.30796099  1
  C  C248  1  0.12026177  0.08555442  0.32564462  1
  C  C249  1  0.12232714  0.11394536  0.33582137  1
  C  C250  1  0.15505115  0.02153945  0.33446718  1
  C  C251  1  0.08412007  0.03854117  0.28028908  1
  C  C252  1  0.11749776  0.00317850  0.29834965  1
  C  C253  1  0.07747362  0.95866238  0.28997016  1
  C  C254  1  0.10400478  0.94863686  0.28240769  1
  C  C255  1  0.09695004  0.92208266  0.27269246  1
  C  C256  1  0.06314647  0.90445742  0.27030353  1
  C  C257  1  0.03688858  0.91494013  0.27866676  1
  C  C258  1  0.04398085  0.94147278  0.28847524  1
  C  C259  1  0.05612619  0.87710849  0.26006397  1
  C  C260  1  0.08072396  0.86590555  0.25164060  1
  C  C261  1  0.08390903  0.09517890  0.29875202  1
  C  C262  1  0.09522130  0.13369068  0.28015904  1
  C  C263  1  0.06135269  0.13600700  0.28105981  1
  C  C264  1  0.05195446  0.15901030  0.27486172  1
  C  C265  1  0.07563840  0.18040886  0.26725370  1
  C  C266  1  0.10952301  0.17689585  0.26587306  1
  C  C267  1  0.11891571  0.15371611  0.27198363  1
  C  C268  1  0.06449832  0.20403590  0.26125439  1
  C  C269  1  0.08428091  0.22657036  0.25355322  1
  C  C270  1  0.92147167  0.61822204  0.89613461  1
  C  C271  1  0.03471523  0.56622359  0.85753963  1
  C  C272  1  0.06482006  0.53051617  0.86199164  1
  C  C273  1  0.05703215  0.55564229  0.86827284  1
  C  C274  1  0.01234320  0.63441421  0.86412689  1
  C  C275  1  0.01205654  0.60617674  0.85487558  1
  C  C276  1  0.05053127  0.51597934  0.84481224  1
  C  C277  1  0.02809997  0.52737791  0.83421933  1
  C  C278  1  0.02075067  0.55282702  0.84029936  1
  C  C279  1  0.04888790  0.64866872  0.87344862  1
  C  C280  1  0.08389700  0.62851029  0.89472497  1
  C  C281  1  0.11595851  0.63709998  0.88755683  1
  C  C282  1  0.14407621  0.62838172  0.89472426  1
  C  C283  1  0.14113607  0.61132704  0.90938397  1
  C  C284  1  0.10748695  0.59962931  0.91417894  1
  C  C285  1  0.07983123  0.60945794  0.90795661  1
  C  C286  1  0.00467254  0.65287368  0.84921867  1
  C  C287  1  0.00477955  0.70215707  0.84901010  1
  C  C288  1  0.01190472  0.72847466  0.85940244  1
  C  C289  1  0.01545667  0.75236598  0.85043794  1
  C  C290  1  0.01102211  0.75042169  0.83096720  1
  C  C291  1  0.00105613  0.72344084  0.82095726  1
  C  C292  1  0.99809440  0.69941736  0.82988962  1
  C  C293  1  0.98392002  0.63195017  0.87813770  1
  C  C294  1  0.92135870  0.61683983  0.87694773  1
  C  C295  1  0.89020625  0.60921339  0.86607194  1
  C  C296  1  0.85941782  0.60311021  0.87443118  1
  C  C297  1  0.85876974  0.60245257  0.89367440  1
  C  C298  1  0.89058274  0.61008885  0.90434735  1
  C  C299  1  0.92351073  0.49773000  0.12794005  1
  C  C300  1  0.03350386  0.59653540  0.17392285  1
  C  C301  1  0.06331493  0.64410193  0.17104557  1
  C  C302  1  0.05550674  0.61569815  0.16455534  1
  C  C303  1  0.01081741  0.51948740  0.16651322  1
  C  C304  1  0.01168697  0.54778514  0.17578514  1
  C  C305  1  0.04891549  0.65320164  0.18690216  1
  C  C306  1  0.02678308  0.63318471  0.19612821  1
  C  C307  1  0.01966496  0.60466963  0.18996321  1
  C  C308  1  0.04577582  0.51966672  0.15846634  1
  C  C309  1  0.08008006  0.55175937  0.13967590  1
  C  C310  1  0.10954716  0.55415054  0.15123571  1
  C  C311  1  0.13862252  0.57517138  0.14925540  1
  C  C312  1  0.14262561  0.58847476  0.13295757  1
  C  C313  1  0.11204671  0.58733659  0.12205323  1
  C  C314  1  0.08099612  0.56938532  0.12562334  1
  C  C315  1  0.00412802  0.49801712  0.18081730  1
  C  C316  1  0.00359740  0.44876524  0.18053637  1
  C  C317  1  0.01069533  0.42548672  0.17056911  1
  C  C318  1  0.01448871  0.40300907  0.17971662  1
  C  C319  1  0.01012069  0.40294180  0.19882497  1
  C  C320  1  1.00028761  0.42581657  0.20819013  1
  C  C321  1  0.99722718  0.44871439  0.19913359  1
  C  C322  1  0.98149709  0.51102677  0.15089329  1
  C  C323  1  0.92055010  0.50079089  0.14693721  1
  C  C324  1  0.88835720  0.49695156  0.15405443  1
  C  C325  1  0.85931277  0.49331159  0.14201733  1
  C  C326  1  0.86286890  0.49608784  0.12310572  1
  C  C327  1  0.89468455  0.49533991  0.11612684  1
  C  C328  1  0.59891220  0.54028472  0.00363974  1
  C  C329  1  0.58669186  0.55851323  -0.00727091  1
  C  C330  1  0.55187426  0.55709163  -0.00856590  1
  C  C331  1  0.53110438  0.54113834  0.00351898  1
  C  C332  1  0.54093877  0.51695595  0.00861380  1
  C  C333  1  0.57537382  0.51684008  0.00922009  1
  C  C334  1  0.65972449  0.52674214  0.02494434  1
  C  C335  1  0.67401406  0.53849971  0.04277628  1
  C  C336  1  0.68566772  0.52184731  0.05454421  1
  C  C337  1  0.68505949  0.49360468  0.04862368  1
  C  C338  1  0.67160148  0.48244030  0.03047371  1
  C  C339  1  0.65967350  0.49878784  0.01857777  1
  C  C340  1  0.66184331  0.53871080  0.98896243  1
  C  C341  1  0.69662493  0.55159562  0.98751604  1
  C  C342  1  0.71243696  0.54389073  0.97222212  1
  C  C343  1  0.69528869  0.52173289  0.95875860  1
  C  C344  1  0.66094976  0.50780330  0.96104815  1
  C  C345  1  0.64391163  0.51682252  0.97556114  1
  C  C346  1  0.44365827  0.66194658  0.02836946  1
  C  C347  1  0.47666581  0.66817038  0.03774347  1
  C  C348  1  0.49735299  0.64952404  0.03501147  1
  C  C349  1  0.48552095  0.62434690  0.02317588  1
  C  C350  1  0.45572623  0.62117448  0.01148891  1
  C  C351  1  0.43442592  0.63934417  0.01425967  1
  C  C352  1  0.38017732  0.67761857  0.01378695  1
  C  C353  1  0.38373916  0.69778862  0.00121591  1
  C  C354  1  0.36008612  0.69404511  0.98608925  1
  C  C355  1  0.33133481  0.67070672  0.98300814  1
  C  C356  1  0.32814413  0.65061480  0.99579120  1
  C  C357  1  0.35179530  0.65402870  0.01096878  1
  C  C358  1  0.38529319  0.66976382  0.05129132  1
  C  C359  1  0.36760478  0.68798170  0.06011187  1
  C  C360  1  0.34207191  0.67742469  0.07143953  1
  C  C361  1  0.33140822  0.64840692  0.07296726  1
  C  C362  1  0.35321868  0.63161561  0.06670768  1
  C  C363  1  0.38046052  0.64227481  0.05627179  1
  C  C364  1  0.82503166  0.59521828  0.90144152  1
  C  C365  1  0.81349439  0.57348149  0.91141410  1
  C  C366  1  0.77943116  0.56932644  0.91940099  1
  C  C367  1  0.71413023  0.51701878  0.94282298  1
  C  C368  1  0.73328445  0.53983194  0.93577420  1
  C  C369  1  0.76682373  0.54149648  0.92760846  1
  C  C370  1  0.83689947  0.50311742  0.11067300  1
  C  C371  1  0.80803363  0.48563802  0.10202580  1
  C  C372  1  0.78358455  0.49788075  0.09167906  1
  C  C373  1  0.70137126  0.47817397  0.06069219  1
  C  C374  1  0.72940243  0.49171900  0.07211518  1
  C  C375  1  0.75278956  0.47689769  0.08109993  1
  C  C376  1  0.17007130  0.60580017  0.92004781  1
  C  C377  1  0.20251292  0.62264686  0.92316165  1
  C  C378  1  0.22069289  0.62814217  0.94215465  1
  C  C379  1  0.30785472  0.66783602  0.96652395  1
  C  C380  1  0.27587560  0.65045665  0.96287752  1
  C  C381  1  0.25850208  0.64462803  0.94366646  1
  C  C382  1  0.17794346  0.60202420  0.12936825  1
  C  C383  1  0.19208305  0.60858718  0.11338181  1
  C  C384  1  0.23049843  0.61582299  0.11320929  1
  C  C385  1  0.29544522  0.63773133  0.07778076  1
  C  C386  1  0.28262253  0.63047341  0.09391071  1
  C  C387  1  0.24448186  0.62401552  0.09491752  1
  C  C388  1  0.50077307  0.60020316  0.02491435  1
  C  C389  1  0.50033050  0.57918288  0.01054407  1
  C  C390  1  0.50982894  0.55460443  0.01480744  1
  C  C391  1  0.50827298  0.54818645  0.03325046  1
  C  C392  1  0.51422703  0.57021694  0.04746235  1
  C  C393  1  0.51272336  0.59687590  0.04281897  1
  C  C394  1  0.52274420  0.56673648  0.06755436  1
  C  C395  1  0.55902233  0.58590107  0.07362593  1
  C  C396  1  0.49351203  0.57463785  0.07827941  1
  C  C397  1  0.52373510  0.53623264  0.06985600  1
  C  C398  1  0.07574592  0.33968820  0.79077459  1
  C  C399  1  0.07408099  0.36252763  0.79851291  1
  C  C400  1  0.07221965  0.38883205  0.80722443  1
  C  C401  1  0.03993587  0.39554927  0.80822459  1
  C  C402  1  0.03756763  0.42117054  0.81633203  1
  C  C403  1  0.06726625  0.44181433  0.82403208  1
  C  C404  1  0.09946760  0.43508337  0.82326722  1
  C  C405  1  0.10189893  0.40935397  0.81513588  1
  C  C406  1  0.06385654  0.46809867  0.83202520  1
  C  C407  1  0.05850821  0.49046276  0.83830675  1
  C  C408  1  0.07200964  0.92901084  0.78586799  1
  C  C409  1  0.06311706  0.90558774  0.79116574  1
  C  C410  1  0.05298643  0.87884497  0.79737990  1
  C  C411  1  0.03403133  0.85508016  0.78547194  1
  C  C412  1  0.02420269  0.82909727  0.79166970  1
  C  C413  1  0.03298416  0.82511173  0.81004674  1
  C  C414  1  0.05181903  0.84882246  0.82201690  1
  C  C415  1  0.06163784  0.87480137  0.81586518  1
  C  C416  1  0.02350532  0.79818739  0.81610740  1
  C  C417  1  0.01671011  0.77543288  0.82231933  1
  C  C418  1  0.07370981  0.83883701  0.24289739  1
  C  C419  1  0.07246812  0.81537175  0.23512163  1
  C  C420  1  0.07114056  0.78836491  0.22644330  1
  C  C421  1  0.08023048  0.78422638  0.20804853  1
  C  C422  1  0.07771703  0.75761889  0.19965886  1
  C  C423  1  0.06611051  0.73390706  0.20923076  1
  C  C424  1  0.05868447  0.73810547  0.22792594  1
  C  C425  1  0.06117807  0.76461736  0.23631320  1
  C  C426  1  0.06186623  0.70649557  0.20045590  1
  C  C427  1  0.05653412  0.68201782  0.19367360  1
  C  C428  1  0.07093693  0.24799984  0.24777448  1
  C  C429  1  0.06217403  0.26801263  0.24193880  1
  C  C430  1  0.05212941  0.29082885  0.23506263  1
  C  C431  1  0.04953682  0.29293616  0.21578932  1
  C  C432  1  0.03966926  0.31504520  0.20898312  1
  C  C433  1  0.03200214  0.33668276  0.22100339  1
  C  C434  1  0.03465177  0.33470188  0.24019313  1
  C  C435  1  0.04454466  0.31261256  0.24703412  1
  C  C436  1  0.02267407  0.35992643  0.21430584  1
  C  C437  1  0.01587837  0.38007028  0.20772564  1
  C  C438  1  0.11633202  0.08854750  0.47433999  1
  C  C439  1  0.11747449  0.09197830  0.49145249  1
  C  C440  1  0.11862522  0.09561735  0.50973774  1
  C  C441  1  0.11859777  0.09866182  0.52686426  1
  C  C442  1  0.11744670  0.10188634  0.54505293  1
  C  C443  1  0.11631651  0.10490574  0.56207061  1
  O  O444  1  0.12347122  0.13248551  0.67108372  1
  O  O445  1  0.10751060  0.07850352  0.74928224  1
  O  O446  1  0.08348574  0.19621040  0.73525994  1
  O  O447  1  0.12240143  0.06356573  0.36585548  1
  O  O448  1  0.10600327  0.11196509  0.28659448  1
  O  O449  1  0.08306464  0.98503978  0.29894337  1
  O  O450  1  0.02702077  0.59122941  0.86528393  1
  O  O451  1  0.05525303  0.63765544  0.89057181  1
  O  O452  1  0.00263732  0.67956512  0.85874054  1
  O  O453  1  0.95056373  0.62287939  0.86781850  1
  O  O454  1  0.02591371  0.56829514  0.16600314  1
  O  O455  1  0.04958179  0.53330490  0.14165879  1
  O  O456  1  0.00112010  0.47059165  0.17081835  1
  O  O457  1  0.94880780  0.50704526  0.15908322  1
