# generated using pymatgen
data_H117C181O6
_symmetry_space_group_name_H-M   'P 1'
_cell_length_a   74.51241500
_cell_length_b   74.60999404
_cell_length_c   37.98604149
_cell_angle_alpha   90.59221363
_cell_angle_beta   90.16456907
_cell_angle_gamma   97.70097960
_symmetry_Int_Tables_number   1
_chemical_formula_structural   H117C181O6
_chemical_formula_sum   'H234 C362 O12'
_cell_volume   209260.74326654
_cell_formula_units_Z   2
loop_
 _symmetry_equiv_pos_site_id
 _symmetry_equiv_pos_as_xyz
  1  'x, y, z'
loop_
 _atom_site_type_symbol
 _atom_site_label
 _atom_site_symmetry_multiplicity
 _atom_site_fract_x
 _atom_site_fract_y
 _atom_site_fract_z
 _atom_site_occupancy
  H  H0  1  0.98266155  0.47069594  0.05388715  1
  H  H1  1  0.99817021  0.48339642  0.08332110  1
  H  H2  1  0.03933184  0.49008909  0.04120620  1
  H  H3  1  0.96905084  0.49649433  0.00835388  1
  H  H4  1  0.98280088  0.52298808  0.93139994  1
  H  H5  1  0.96496883  0.51418305  0.95927117  1
  H  H6  1  0.02154618  0.48138654  0.06929755  1
  H  H7  1  0.03519613  0.50761619  0.99181293  1
  H  H8  1  0.02153935  0.53343723  0.94652273  1
  H  H9  1  0.00611639  0.52073925  0.91687917  1
  H  H10  1  0.48463108  0.02912843  0.05830097  1
  H  H11  1  0.48841962  0.01082529  0.08569113  1
  H  H12  1  0.47195958  0.97097271  0.03729263  1
  H  H13  1  0.51252215  0.03485618  0.00930667  1
  H  H14  1  0.53252171  0.01492133  0.93481139  1
  H  H15  1  0.53199854  0.03421986  0.96208055  1
  H  H16  1  0.47175693  0.99005633  0.06528891  1
  H  H17  1  0.49199835  0.96988657  0.99122906  1
  H  H18  1  0.51983839  0.97544289  0.94233607  1
  H  H19  1  0.51617311  0.99376797  0.91489453  1
  H  H20  1  0.50727269  0.54497227  0.44320593  1
  H  H21  1  0.50195272  0.57682352  0.44297981  1
  H  H22  1  0.47659894  0.57000363  0.54472734  1
  H  H23  1  0.47941976  0.53751028  0.54268804  1
  H  H24  1  0.52537159  0.52780903  0.48402064  1
  H  H25  1  0.46549868  0.52235364  0.45397285  1
  H  H26  1  0.43309468  0.52549335  0.45236329  1
  H  H27  1  0.42453535  0.49395041  0.54650879  1
  H  H28  1  0.45684377  0.49024853  0.54770839  1
  H  H29  1  0.49686819  0.46005553  0.55733941  1
  H  H30  1  0.50222809  0.42815210  0.55748341  1
  H  H31  1  0.52758962  0.43502458  0.45571604  1
  H  H32  1  0.52469300  0.46754810  0.45771746  1
  H  H33  1  0.47851930  0.47700543  0.51630135  1
  H  H34  1  0.53817553  0.48233756  0.54637376  1
  H  H35  1  0.57061900  0.47916660  0.54794089  1
  H  H36  1  0.57921220  0.51072439  0.45375131  1
  H  H37  1  0.54683870  0.51442110  0.45245611  1
  H  H38  1  0.11345143  0.55594447  0.28151391  1
  H  H39  1  0.10194854  0.51518562  0.29632172  1
  H  H40  1  0.11471086  0.50181705  0.34423536  1
  H  H41  1  0.13550345  0.50273009  0.39463806  1
  H  H42  1  0.15260022  0.55957981  0.37741999  1
  H  H43  1  0.13202408  0.55874408  0.32603159  1
  H  H44  1  0.15979363  0.50530162  0.42481284  1
  H  H45  1  0.14102244  0.51257453  0.44679420  1
  H  H46  1  0.13490847  0.53869151  0.52219201  1
  H  H47  1  0.13167357  0.51698333  0.50273022  1
  H  H48  1  0.13454635  0.53648143  0.47599541  1
  H  H49  1  0.18516149  0.51257604  0.41364504  1
  H  H50  1  0.19519215  0.49856952  0.44309749  1
  H  H51  1  0.20709027  0.51953724  0.42971718  1
  H  H52  1  0.19620930  0.55152993  0.57535962  1
  H  H53  1  0.21325958  0.55563910  0.54277517  1
  H  H54  1  0.21020614  0.53495803  0.56562349  1
  H  H55  1  0.22277515  0.52535181  0.51914971  1
  H  H56  1  0.22079038  0.52005954  0.47333604  1
  H  H57  1  0.24622591  0.52067363  0.49281864  1
  H  H58  1  0.27871510  0.52428247  0.49721112  1
  H  H59  1  0.28065096  0.58204751  0.48066750  1
  H  H60  1  0.24715528  0.57803610  0.47736976  1
  H  H61  1  0.31000461  0.56863800  0.48810734  1
  H  H62  1  0.30396309  0.52725615  0.50182697  1
  H  H63  1  0.17264588  0.55915592  0.56647844  1
  H  H64  1  0.15022480  0.55101014  0.55355881  1
  H  H65  1  0.15353179  0.56715809  0.60135327  1
  H  H66  1  0.13246170  0.57398888  0.64747098  1
  H  H67  1  0.12689998  0.51782268  0.68008102  1
  H  H68  1  0.14747783  0.51129314  0.63275333  1
  H  H69  1  0.11270863  0.56429830  0.69898844  1
  H  H70  1  0.11108139  0.52336714  0.71480061  1
  H  H71  1  0.52796614  0.11285554  0.29051016  1
  H  H72  1  0.56883495  0.10949301  0.29833231  1
  H  H73  1  0.58424017  0.12653297  0.34760674  1
  H  H74  1  0.58420180  0.14700975  0.39854129  1
  H  H75  1  0.52718848  0.14936528  0.38326250  1
  H  H76  1  0.52691652  0.12904264  0.33179085  1
  H  H77  1  0.58194474  0.17079021  0.43099809  1
  H  H78  1  0.57470896  0.15003116  0.45226837  1
  H  H79  1  0.54848239  0.13702372  0.52721279  1
  H  H80  1  0.57022885  0.13949316  0.50841324  1
  H  H81  1  0.55071208  0.13729733  0.48108313  1
  H  H82  1  0.57427247  0.19411830  0.41980350  1
  H  H83  1  0.58825259  0.20818102  0.44946806  1
  H  H84  1  0.56699763  0.21399646  0.43605007  1
  H  H85  1  0.53558856  0.19484658  0.58066952  1
  H  H86  1  0.53141407  0.21058499  0.54786853  1
  H  H87  1  0.55203731  0.21338237  0.57158939  1
  H  H88  1  0.56180320  0.22849888  0.52552437  1
  H  H89  1  0.56752809  0.22770244  0.48013860  1
  H  H90  1  0.56616556  0.25345039  0.49765991  1
  H  H91  1  0.56117677  0.28498626  0.50115226  1
  H  H92  1  0.50377029  0.26908918  0.48369027  1
  H  H93  1  0.50892883  0.23687395  0.48101437  1
  H  H94  1  0.51468911  0.30073816  0.49122698  1
  H  H95  1  0.55598268  0.31176336  0.50390206  1
  H  H96  1  0.52846487  0.16930102  0.57196471  1
  H  H97  1  0.53627309  0.14902721  0.55834053  1
  H  H98  1  0.52004341  0.14778373  0.60487774  1
  H  H99  1  0.51232196  0.12481801  0.65005279  1
  H  H100  1  0.56784118  0.13307592  0.68727825  1
  H  H101  1  0.57556014  0.15562099  0.64068963  1
  H  H102  1  0.51970878  0.10802945  0.69964188  1
  H  H103  1  0.55953944  0.11326923  0.72589776  1
  H  H104  1  0.89256203  0.47620433  0.71538153  1
  H  H105  1  0.89558395  0.43527529  0.70783324  1
  H  H106  1  0.87838238  0.41976973  0.65877370  1
  H  H107  1  0.85798347  0.41975949  0.60792223  1
  H  H108  1  0.85614474  0.47685733  0.62301361  1
  H  H109  1  0.87645374  0.47718355  0.67425526  1
  H  H110  1  0.83415953  0.42219455  0.57525421  1
  H  H111  1  0.85494834  0.42929331  0.55372407  1
  H  H112  1  0.86804027  0.45564851  0.47903992  1
  H  H113  1  0.86557883  0.43401625  0.49794989  1
  H  H114  1  0.86775516  0.45360632  0.52521679  1
  H  H115  1  0.81076432  0.42985032  0.58651204  1
  H  H116  1  0.79684595  0.41576246  0.55678644  1
  H  H117  1  0.79080161  0.43692939  0.57044134  1
  H  H118  1  0.81018998  0.46807551  0.42570238  1
  H  H119  1  0.79442421  0.47252000  0.45849154  1
  H  H120  1  0.79161569  0.45175533  0.43510555  1
  H  H121  1  0.77654295  0.44190210  0.48085777  1
  H  H122  1  0.77709851  0.43659856  0.52641487  1
  H  H123  1  0.75144800  0.43795640  0.50791169  1
  H  H124  1  0.71993656  0.44301662  0.50343312  1
  H  H125  1  0.73594350  0.50048499  0.51961654  1
  H  H126  1  0.76814137  0.49523221  0.52305311  1
  H  H127  1  0.70424883  0.48959699  0.51198488  1
  H  H128  1  0.69312566  0.44826726  0.50024202  1
  H  H129  1  0.83556534  0.47576757  0.43535780  1
  H  H130  1  0.85594074  0.46785792  0.44781033  1
  H  H131  1  0.85621647  0.48418892  0.40140547  1
  H  H132  1  0.87916653  0.49189491  0.35590039  1
  H  H133  1  0.87130983  0.43625131  0.31888647  1
  H  H134  1  0.84876182  0.42857848  0.36578954  1
  H  H135  1  0.89597086  0.48444142  0.30614469  1
  H  H136  1  0.89088710  0.44451069  0.28031833  1
  H  H137  1  0.44846773  0.89001955  0.71358695  1
  H  H138  1  0.48931856  0.90145024  0.69862376  1
  H  H139  1  0.50275958  0.88865636  0.65072278  1
  H  H140  1  0.50193484  0.86784848  0.60013063  1
  H  H141  1  0.44490534  0.85094090  0.61726899  1
  H  H142  1  0.44564581  0.87153621  0.66889110  1
  H  H143  1  0.49934370  0.84390066  0.56948200  1
  H  H144  1  0.49206788  0.86270478  0.54802902  1
  H  H145  1  0.46611450  0.86883682  0.47271930  1
  H  H146  1  0.48775425  0.87207071  0.49233402  1
  H  H147  1  0.46809246  0.86912868  0.51893596  1
  H  H148  1  0.49154755  0.81874358  0.58119422  1
  H  H149  1  0.50574906  0.80861914  0.55197020  1
  H  H150  1  0.48462605  0.79684336  0.56501841  1
  H  H151  1  0.45302005  0.80749780  0.41953160  1
  H  H152  1  0.44884427  0.79055991  0.45215864  1
  H  H153  1  0.46956066  0.79346219  0.42905063  1
  H  H154  1  0.47913881  0.78086862  0.47582856  1
  H  H155  1  0.48427865  0.78318702  0.52159398  1
  H  H156  1  0.48393140  0.75763651  0.50341725  1
  H  H157  1  0.48043922  0.72514004  0.49974889  1
  H  H158  1  0.42244394  0.72316242  0.51490072  1
  H  H159  1  0.42634104  0.75664004  0.51779301  1
  H  H160  1  0.43596882  0.69389707  0.50814953  1
  H  H161  1  0.47753579  0.69989968  0.49530964  1
  H  H162  1  0.44560057  0.83118846  0.42790621  1
  H  H163  1  0.45343282  0.85351553  0.44179328  1
  H  H164  1  0.43737061  0.85091194  0.39322306  1
  H  H165  1  0.43058107  0.87175488  0.34707335  1
  H  H166  1  0.48695660  0.87778629  0.31496065  1
  H  H167  1  0.49341535  0.85729153  0.36201755  1
  H  H168  1  0.44026568  0.89161472  0.29599968  1
  H  H169  1  0.48127149  0.89381499  0.27962592  1
  H  H170  1  0.08565232  0.50215425  0.76584038  1
  H  H171  1  0.07731817  0.46979560  0.78094142  1
  H  H172  1  0.05788786  0.46118195  0.83287496  1
  H  H173  1  0.04690042  0.48500521  0.87017253  1
  H  H174  1  0.04348192  0.54893057  0.89600195  1
  H  H175  1  0.05129565  0.58132397  0.88129833  1
  H  H176  1  0.07072402  0.59033900  0.82949933  1
  H  H177  1  0.08212696  0.56681170  0.79199597  1
  H  H178  1  0.53272087  0.11103297  0.82142021  1
  H  H179  1  0.52626481  0.12451925  0.87927203  1
  H  H180  1  0.51730199  0.10478069  0.93044248  1
  H  H181  1  0.51417876  0.07131206  0.92340067  1
  H  H182  1  0.51818908  0.01767792  0.85229918  1
  H  H183  1  0.52510768  0.00298840  0.79592371  1
  H  H184  1  0.53454114  0.02189418  0.74377888  1
  H  H185  1  0.53728734  0.05538883  0.74789657  1
  H  H186  1  0.91931688  0.43779848  0.20488537  1
  H  H187  1  0.92828222  0.41424230  0.16433817  1
  H  H188  1  0.94772139  0.42311417  0.11248619  1
  H  H189  1  0.95796003  0.45548596  0.10081609  1
  H  H190  1  0.96028971  0.51950947  0.13342303  1
  H  H191  1  0.95181729  0.54337444  0.17390484  1
  H  H192  1  0.93240632  0.53491957  0.22593627  1
  H  H193  1  0.92153449  0.50261670  0.23790834  1
  H  H194  1  0.44237346  0.90642782  0.18263452  1
  H  H195  1  0.42405541  0.90411401  0.12758932  1
  H  H196  1  0.43354969  0.92399074  0.07680975  1
  H  H197  1  0.46190360  0.94568962  0.08062774  1
  H  H198  1  0.51428326  0.97416012  0.14524866  1
  H  H199  1  0.53329610  0.97771250  0.19948179  1
  H  H200  1  0.52476109  0.95818186  0.25118446  1
  H  H201  1  0.49689476  0.93580794  0.24973954  1
  H  H202  1  0.52765714  0.05783015  0.26070712  1
  H  H203  1  0.51680406  0.02509638  0.26777268  1
  H  H204  1  0.50784396  0.00569070  0.21519831  1
  H  H205  1  0.51000975  0.01892336  0.15541094  1
  H  H206  1  0.52410025  0.07136202  0.07860937  1
  H  H207  1  0.53460694  0.10410668  0.07092147  1
  H  H208  1  0.54361248  0.12374599  0.12309155  1
  H  H209  1  0.54204568  0.11074492  0.18314774  1
  H  H210  1  0.10892970  0.54462195  0.17616742  1
  H  H211  1  0.12106323  0.54849483  0.11548745  1
  H  H212  1  0.10123841  0.53930349  0.06376108  1
  H  H213  1  0.06896614  0.52677438  0.07259784  1
  H  H214  1  0.01798737  0.50754510  0.15053200  1
  H  H215  1  0.00526235  0.50305454  0.21067123  1
  H  H216  1  0.02463142  0.51199134  0.26314222  1
  H  H217  1  0.05689539  0.52490998  0.25580754  1
  H  H218  1  0.92233222  0.50140312  0.76671711  1
  H  H219  1  0.93354571  0.53371300  0.77905410  1
  H  H220  1  0.95325468  0.54245873  0.83119401  1
  H  H221  1  0.96182415  0.51873678  0.87097837  1
  H  H222  1  0.95939190  0.45570449  0.90442781  1
  H  H223  1  0.94854573  0.42308940  0.89394812  1
  H  H224  1  0.92880751  0.41353220  0.84231394  1
  H  H225  1  0.91976964  0.43639680  0.80107444  1
  H  H226  1  0.46606757  0.94749406  0.74429103  1
  H  H227  1  0.46724564  0.98086894  0.74034606  1
  H  H228  1  0.47657003  1.00046120  0.79246266  1
  H  H229  1  0.48376570  0.98672134  0.84919346  1
  H  H230  1  0.49137155  0.93264944  0.91867856  1
  H  H231  1  0.49056125  0.89932917  0.92252734  1
  H  H232  1  0.48157870  0.87967940  0.87036852  1
  H  H233  1  0.47378985  0.89333694  0.81389923  1
  C  C234  1  0.99052758  0.50572391  0.97259583  1
  C  C235  1  0.01725152  0.51942163  0.93573167  1
  C  C236  1  0.02721160  0.49384308  0.05510353  1
  C  C237  1  0.98701792  0.48472914  0.06451749  1
  C  C238  1  0.98370562  0.49915058  0.00510196  1
  C  C239  1  0.99487885  0.49564100  0.03334118  1
  C  C240  1  0.00937045  0.50841222  0.96676811  1
  C  C241  1  0.01370681  0.49826503  0.02745038  1
  C  C242  1  0.97701813  0.51041911  0.94511903  1
  C  C243  1  0.02054132  0.50488150  0.99499385  1
  C  C244  1  0.51115096  0.01244704  0.97294620  1
  C  C245  1  0.50924053  0.98391698  0.93378101  1
  C  C246  1  0.48099366  0.98116559  0.05315667  1
  C  C247  1  0.49531449  0.02076030  0.06689883  1
  C  C248  1  0.50834440  0.02036482  0.00586428  1
  C  C249  1  0.50015998  0.01057869  0.03412299  1
  C  C250  1  0.50445286  0.99414543  0.96650579  1
  C  C251  1  0.49335424  0.99230522  0.02758234  1
  C  C252  1  0.52310317  0.02364945  0.94686507  1
  C  C253  1  0.49624160  0.98436451  0.99473085  1
  C  C254  1  0.49346011  0.53875718  0.49261062  1
  C  C255  1  0.50044993  0.55040415  0.46544487  1
  C  C256  1  0.49749179  0.56829135  0.46529237  1
  C  C257  1  0.48874323  0.57601806  0.49378465  1
  C  C258  1  0.48274946  0.56423173  0.52197030  1
  C  C259  1  0.48440815  0.54609685  0.52081764  1
  C  C260  1  0.49700858  0.51966066  0.49356031  1
  C  C261  1  0.51500646  0.51643896  0.48938544  1
  C  C262  1  0.48354256  0.50536948  0.50384225  1
  C  C263  1  0.46398796  0.50721684  0.50259409  1
  C  C264  1  0.45676187  0.51681956  0.47525819  1
  C  C265  1  0.43860792  0.51854853  0.47422633  1
  C  C266  1  0.42649801  0.51163924  0.50137163  1
  C  C267  1  0.43364289  0.50061804  0.52677886  1
  C  C268  1  0.45175294  0.49826539  0.52703466  1
  C  C269  1  0.51050514  0.46617306  0.50771100  1
  C  C270  1  0.50362432  0.45458997  0.53506053  1
  C  C271  1  0.50662333  0.43674434  0.53521551  1
  C  C272  1  0.51533909  0.42912367  0.50658736  1
  C  C273  1  0.52139834  0.44083984  0.47838069  1
  C  C274  1  0.51968674  0.45893671  0.47953216  1
  C  C275  1  0.50683787  0.48521026  0.50673383  1
  C  C276  1  0.48883750  0.48841221  0.51091234  1
  C  C277  1  0.52027925  0.49948224  0.49648007  1
  C  C278  1  0.53979270  0.49758554  0.49779985  1
  C  C279  1  0.54693363  0.48790201  0.52515398  1
  C  C280  1  0.56505143  0.48615211  0.52618988  1
  C  C281  1  0.57707407  0.49311870  0.49899471  1
  C  C282  1  0.57004658  0.50412967  0.47346974  1
  C  C283  1  0.55197286  0.50649088  0.47320682  1
  C  C284  1  0.10687994  0.54205108  0.27779399  1
  C  C285  1  0.10962700  0.52848938  0.30113758  1
  C  C286  1  0.12168557  0.53005624  0.33083970  1
  C  C287  1  0.12297765  0.51450967  0.35140180  1
  C  C288  1  0.13450940  0.51506475  0.38004870  1
  C  C289  1  0.14503714  0.53137028  0.38935626  1
  C  C290  1  0.14421654  0.54701556  0.36973941  1
  C  C291  1  0.13266002  0.54643243  0.34090318  1
  C  C292  1  0.15530464  0.51659160  0.43978038  1
  C  C293  1  0.16706222  0.52206278  0.47101516  1
  C  C294  1  0.18589188  0.52169778  0.46823992  1
  C  C295  1  0.19717047  0.52931433  0.49589468  1
  C  C296  1  0.18990491  0.53737198  0.52552973  1
  C  C297  1  0.17108981  0.53812180  0.52687723  1
  C  C298  1  0.15938767  0.53027668  0.50003996  1
  C  C299  1  0.13924776  0.53066283  0.50034371  1
  C  C300  1  0.19367931  0.51275376  0.43724875  1
  C  C301  1  0.20288154  0.54529449  0.55369749  1
  C  C302  1  0.21722634  0.52938686  0.49391345  1
  C  C303  1  0.24449719  0.54927256  0.48609369  1
  C  C304  1  0.25358278  0.53427061  0.49087162  1
  C  C305  1  0.27231802  0.53638184  0.49278576  1
  C  C306  1  0.28288129  0.55354369  0.48922596  1
  C  C307  1  0.27316731  0.56855424  0.48359130  1
  C  C308  1  0.25435524  0.56643900  0.48187415  1
  C  C309  1  0.30233112  0.55522954  0.49093014  1
  C  C310  1  0.31178624  0.54050990  0.49646053  1
  C  C311  1  0.16363731  0.54690235  0.55816539  1
  C  C312  1  0.15117184  0.53856970  0.61353100  1
  C  C313  1  0.14726463  0.55630417  0.61806839  1
  C  C314  1  0.13564969  0.56019518  0.64460657  1
  C  C315  1  0.12782160  0.54661528  0.66805957  1
  C  C316  1  0.13248388  0.52885481  0.66309647  1
  C  C317  1  0.14415004  0.52499374  0.63649082  1
  C  C318  1  0.11581068  0.55050607  0.69580995  1
  C  C319  1  0.10810508  0.53726273  0.71849965  1
  C  C320  1  0.54094195  0.10822229  0.28423314  1
  C  C321  1  0.55596379  0.11406943  0.30499065  1
  C  C322  1  0.55567005  0.12595710  0.33505236  1
  C  C323  1  0.57162807  0.13141446  0.35514679  1
  C  C324  1  0.57161690  0.14280450  0.38419688  1
  C  C325  1  0.55552689  0.14907334  0.39438846  1
  C  C326  1  0.53959253  0.14422940  0.37509725  1
  C  C327  1  0.53959399  0.13278762  0.34604894  1
  C  C328  1  0.57065004  0.16323036  0.44550879  1
  C  C329  1  0.56517436  0.17347981  0.47687939  1
  C  C330  1  0.56549702  0.19237890  0.47438765  1
  C  C331  1  0.55812305  0.20165414  0.50219723  1
  C  C332  1  0.54999284  0.19228568  0.53150487  1
  C  C333  1  0.54942978  0.17330997  0.53284342  1
  C  C334  1  0.55707772  0.16370178  0.50578257  1
  C  C335  1  0.55656939  0.14347873  0.50571698  1
  C  C336  1  0.57408463  0.20259697  0.44349363  1
  C  C337  1  0.54182916  0.20315147  0.55925960  1
  C  C338  1  0.55804490  0.22166446  0.50015990  1
  C  C339  1  0.53769617  0.24311732  0.49052109  1
  C  C340  1  0.55238204  0.25670182  0.49531820  1
  C  C341  1  0.54955235  0.27467203  0.49674369  1
  C  C342  1  0.53194311  0.27969800  0.49282909  1
  C  C343  1  0.51739366  0.26555312  0.48694513  1
  C  C344  1  0.52021296  0.24756947  0.48557000  1
  C  C345  1  0.52866696  0.29813846  0.49442374  1
  C  C346  1  0.54170364  0.31322973  0.49972787  1
  C  C347  1  0.54062735  0.16343695  0.56376002  1
  C  C348  1  0.54851510  0.15256466  0.61917751  1
  C  C349  1  0.53063271  0.14419316  0.62226070  1
  C  C350  1  0.52621040  0.13152795  0.64824467  1
  C  C351  1  0.53926901  0.12707203  0.67277310  1
  C  C352  1  0.55725290  0.13612807  0.66932731  1
  C  C353  1  0.56171940  0.14882772  0.64314844  1
  C  C354  1  0.53389229  0.11400330  0.69968735  1
  C  C355  1  0.54502281  0.10838482  0.72550833  1
  C  C356  1  0.89706922  0.46321492  0.72161074  1
  C  C357  1  0.89109606  0.44812702  0.70105669  1
  C  C358  1  0.87923709  0.44838090  0.67111583  1
  C  C359  1  0.87363214  0.43238526  0.65116031  1
  C  C360  1  0.86226847  0.43237206  0.62219375  1
  C  C361  1  0.85614561  0.44847112  0.61198975  1
  C  C362  1  0.86115089  0.46444189  0.63118025  1
  C  C363  1  0.87258357  0.46447122  0.66010781  1
  C  C364  1  0.84177764  0.43344844  0.56080256  1
  C  C365  1  0.83152221  0.43900378  0.52965447  1
  C  C366  1  0.81256786  0.43857385  0.53207799  1
  C  C367  1  0.80329237  0.44582663  0.50432649  1
  C  C368  1  0.81269006  0.45402000  0.47513162  1
  C  C369  1  0.83170636  0.45478753  0.47401337  1
  C  C370  1  0.84133205  0.44714531  0.50080754  1
  C  C371  1  0.86157807  0.44766830  0.50064039  1
  C  C372  1  0.80230313  0.42994738  0.56288772  1
  C  C373  1  0.80186100  0.46200387  0.44728327  1
  C  C374  1  0.78325368  0.44586540  0.50621853  1
  C  C375  1  0.76182071  0.46641247  0.51457258  1
  C  C376  1  0.74821447  0.45175550  0.50977260  1
  C  C377  1  0.73025571  0.45463840  0.50779482  1
  C  C378  1  0.72524759  0.47227822  0.51114774  1
  C  C379  1  0.73943243  0.48682131  0.51684877  1
  C  C380  1  0.75741156  0.48395541  0.51870685  1
  C  C381  1  0.70679215  0.47558703  0.50916927  1
  C  C382  1  0.69165437  0.46257439  0.50398044  1
  C  C383  1  0.84145325  0.46358821  0.44305601  1
  C  C384  1  0.85169326  0.45567456  0.38714402  1
  C  C385  1  0.85989896  0.47359367  0.38396441  1
  C  C386  1  0.87253327  0.47800189  0.35783510  1
  C  C387  1  0.87707057  0.46488390  0.33329508  1
  C  C388  1  0.86815316  0.44686868  0.33682969  1
  C  C389  1  0.85545816  0.44242493  0.36313282  1
  C  C390  1  0.89006359  0.47025595  0.30620542  1
  C  C391  1  0.89563446  0.45903253  0.28029316  1
  C  C392  1  0.46235812  0.89662991  0.71723475  1
  C  C393  1  0.47598924  0.89380995  0.69385053  1
  C  C394  1  0.47442797  0.88174826  0.66408297  1
  C  C395  1  0.49005976  0.88041585  0.64350043  1
  C  C396  1  0.48954728  0.86889219  0.61475398  1
  C  C397  1  0.47319308  0.85845331  0.60539803  1
  C  C398  1  0.45747480  0.85928446  0.62505600  1
  C  C399  1  0.45801177  0.87083874  0.65399760  1
  C  C400  1  0.48806674  0.84841553  0.55469976  1
  C  C401  1  0.48262485  0.83671607  0.52336064  1
  C  C402  1  0.48278890  0.81791342  0.52636250  1
  C  C403  1  0.47511056  0.80661752  0.49877352  1
  C  C404  1  0.46720336  0.81388768  0.46910755  1
  C  C405  1  0.46662266  0.83270915  0.46750346  1
  C  C406  1  0.47445101  0.84437502  0.49447314  1
  C  C407  1  0.47405414  0.86448664  0.49452330  1
  C  C408  1  0.49150730  0.81019689  0.55753585  1
  C  C409  1  0.45922534  0.80085067  0.44107531  1
  C  C410  1  0.47498763  0.78658203  0.50095730  1
  C  C411  1  0.45520755  0.75932704  0.50942450  1
  C  C412  1  0.47031452  0.75026972  0.50523232  1
  C  C413  1  0.46827030  0.73154734  0.50369831  1
  C  C414  1  0.45105998  0.72100065  0.50700263  1
  C  C415  1  0.43595387  0.73067476  0.51215807  1
  C  C416  1  0.43801301  0.74946448  0.51360398  1
  C  C417  1  0.44940103  0.70159216  0.50553964  1
  C  C418  1  0.46420568  0.69215785  0.50049267  1
  C  C419  1  0.45777096  0.84025305  0.43644917  1
  C  C420  1  0.46604411  0.85338342  0.38123254  1
  C  C421  1  0.44829233  0.85720482  0.37659185  1
  C  C422  1  0.44443200  0.86873532  0.35003719  1
  C  C423  1  0.45806156  0.87668771  0.32672166  1
  C  C424  1  0.47585278  0.87213936  0.33182100  1
  C  C425  1  0.47967841  0.86052669  0.35835229  1
  C  C426  1  0.45412850  0.88869102  0.29910106  1
  C  C427  1  0.46729759  0.89665091  0.27641216  1
  C  C428  1  0.40863824  0.51567916  0.50169819  1
  C  C429  1  0.39346792  0.52062218  0.50087979  1
  C  C430  1  0.37726987  0.52617566  0.49966587  1
  C  C431  1  0.36209903  0.53138740  0.49852342  1
  C  C432  1  0.34588147  0.53680409  0.49728296  1
  C  C433  1  0.33026257  0.54097810  0.49625957  1
  C  C434  1  0.51829155  0.41102175  0.50564444  1
  C  C435  1  0.52185913  0.39537410  0.50444535  1
  C  C436  1  0.52576974  0.37856625  0.50314034  1
  C  C437  1  0.52953640  0.36286586  0.50214775  1
  C  C438  1  0.53354011  0.34612166  0.50115116  1
  C  C439  1  0.53722074  0.33042065  0.50026289  1
  C  C440  1  0.59488875  0.48911913  0.49872445  1
  C  C441  1  0.61017768  0.48454135  0.49946856  1
  C  C442  1  0.62662432  0.47960258  0.50033818  1
  C  C443  1  0.64203025  0.47500951  0.50118926  1
  C  C444  1  0.65870811  0.47073142  0.50215647  1
  C  C445  1  0.67442932  0.46704512  0.50309594  1
  C  C446  1  0.48570513  0.59414361  0.49461535  1
  C  C447  1  0.48186095  0.60972117  0.49593832  1
  C  C448  1  0.47728919  0.62630514  0.49755269  1
  C  C449  1  0.47261814  0.64168253  0.49877708  1
  C  C450  1  0.46765517  0.65807200  0.50006140  1
  C  C451  1  0.46365340  0.67372244  0.50092569  1
  C  C452  1  0.07586499  0.53094004  0.80111387  1
  C  C453  1  0.06935851  0.54446449  0.82274831  1
  C  C454  1  0.05835356  0.53926906  0.85274016  1
  C  C455  1  0.05394044  0.52056073  0.86143175  1
  C  C456  1  0.06019333  0.50711575  0.83966449  1
  C  C457  1  0.07123211  0.51212991  0.80952430  1
  C  C458  1  0.07725483  0.49843999  0.78876307  1
  C  C459  1  0.07254973  0.48028722  0.79718666  1
  C  C460  1  0.06159883  0.47539566  0.82656183  1
  C  C461  1  0.05549968  0.48867725  0.84752468  1
  C  C462  1  0.05198171  0.55283764  0.87336507  1
  C  C463  1  0.05635734  0.57100307  0.86504443  1
  C  C464  1  0.06729935  0.57608299  0.83575731  1
  C  C465  1  0.07369264  0.56293188  0.81479996  1
  C  C466  1  0.04275679  0.51581237  0.89093996  1
  C  C467  1  0.03219794  0.51377211  0.91606375  1
  C  C468  1  0.08677004  0.53607076  0.77204756  1
  C  C469  1  0.09662675  0.53987518  0.74627535  1
  C  C470  1  0.52988464  0.07515426  0.80549024  1
  C  C471  1  0.52856680  0.05576998  0.80207038  1
  C  C472  1  0.52293662  0.04478646  0.83163853  1
  C  C473  1  0.51853585  0.05307891  0.86378294  1
  C  C474  1  0.52080747  0.07221190  0.86809734  1
  C  C475  1  0.52635927  0.08342306  0.83879849  1
  C  C476  1  0.52836478  0.10230077  0.84348283  1
  C  C477  1  0.52492428  0.10988145  0.87606530  1
  C  C478  1  0.51976984  0.09875251  0.90498144  1
  C  C479  1  0.51779014  0.08007219  0.90102736  1
  C  C480  1  0.52191134  0.02581504  0.82913729  1
  C  C481  1  0.52603005  0.01766228  0.79775285  1
  C  C482  1  0.53139339  0.02838216  0.76838468  1
  C  C483  1  0.53279213  0.04719225  0.77060758  1
  C  C484  1  0.51442831  0.04195800  0.89325288  1
  C  C485  1  0.51397992  0.03232310  0.91958125  1
  C  C486  1  0.53460914  0.08624418  0.77675813  1
  C  C487  1  0.53864344  0.09637326  0.75166158  1
  C  C488  1  0.92830508  0.47392106  0.19907628  1
  C  C489  1  0.93451464  0.49263432  0.19230814  1
  C  C490  1  0.94557451  0.49751303  0.16220056  1
  C  C491  1  0.95030867  0.48395200  0.13876709  1
  C  C492  1  0.94443383  0.46526252  0.14584531  1
  C  C493  1  0.93337856  0.46014334  0.17581638  1
  C  C494  1  0.92770650  0.44169552  0.18204074  1
  C  C495  1  0.93277020  0.42848571  0.15937658  1
  C  C496  1  0.94371493  0.43348011  0.13007703  1
  C  C497  1  0.94944258  0.45163646  0.12346295  1
  C  C498  1  0.95172346  0.51589744  0.15614079  1
  C  C499  1  0.94701480  0.52919962  0.17886816  1
  C  C500  1  0.93605740  0.52440773  0.20829820  1
  C  C501  1  0.92992630  0.50631656  0.21496222  1
  C  C502  1  0.96155839  0.48853892  0.10930793  1
  C  C503  1  0.97215324  0.49052245  0.08422197  1
  C  C504  1  0.91725095  0.46934306  0.22801948  1
  C  C505  1  0.90732125  0.46534334  0.25351386  1
  C  C506  1  0.47331756  0.92924181  0.19474002  1
  C  C507  1  0.48966629  0.94196360  0.19655486  1
  C  C508  1  0.49504050  0.95287786  0.16667271  1
  C  C509  1  0.48450506  0.95084589  0.13550685  1
  C  C510  1  0.46820477  0.93838049  0.13355091  1
  C  C511  1  0.46260190  0.92740874  0.16313572  1
  C  C512  1  0.44662279  0.91506105  0.16038040  1
  C  C513  1  0.43635275  0.91376911  0.12950712  1
  C  C514  1  0.44174554  0.92489775  0.10071164  1
  C  C515  1  0.45758097  0.93700673  0.10271778  1
  C  C516  1  0.51067228  0.96578701  0.16815242  1
  C  C517  1  0.52118146  0.96777496  0.19846519  1
  C  C518  1  0.51624409  0.95679430  0.22771779  1
  C  C519  1  0.50063699  0.94415932  0.22684172  1
  C  C520  1  0.48900372  0.96221184  0.10648689  1
  C  C521  1  0.48961545  0.97197984  0.08038814  1
  C  C522  1  0.46812694  0.91823924  0.22355301  1
  C  C523  1  0.46450169  0.90819861  0.24904071  1
  C  C524  1  0.53184683  0.07590444  0.19978002  1
  C  C525  1  0.53261592  0.08354402  0.16516760  1
  C  C526  1  0.52745979  0.07223299  0.13507313  1
  C  C527  1  0.52159457  0.05337516  0.13920289  1
  C  C528  1  0.52032093  0.04582817  0.17372576  1
  C  C529  1  0.52542477  0.05701813  0.20398948  1
  C  C530  1  0.52397409  0.04927948  0.23765064  1
  C  C531  1  0.51780160  0.03096171  0.24160431  1
  C  C532  1  0.51279064  0.01998413  0.21193063  1
  C  C533  1  0.51403433  0.02736363  0.17843202  1
  C  C534  1  0.52821602  0.07995991  0.10137161  1
  C  C535  1  0.53399971  0.09830420  0.09714106  1
  C  C536  1  0.53907144  0.10939435  0.12664164  1
  C  C537  1  0.53830481  0.10208967  0.16026500  1
  C  C538  1  0.51600871  0.04233827  0.10958884  1
  C  C539  1  0.50950151  0.03248137  0.08511609  1
  C  C540  1  0.53691926  0.08686507  0.22919143  1
  C  C541  1  0.54080813  0.09668450  0.25527215  1
  C  C542  1  0.07447822  0.53118662  0.19379056  1
  C  C543  1  0.05580695  0.52390162  0.19896090  1
  C  C544  1  0.04454184  0.51911059  0.16900416  1
  C  C545  1  0.05197974  0.52186578  0.13466062  1
  C  C546  1  0.07050880  0.52893780  0.12929206  1
  C  C547  1  0.08191097  0.53378945  0.15903473  1
  C  C548  1  0.10014260  0.54082207  0.15356816  1
  C  C549  1  0.10696290  0.54292750  0.11953873  1
  C  C550  1  0.09575123  0.53782939  0.09026579  1
  C  C551  1  0.07768318  0.53092260  0.09512112  1
  C  C552  1  0.02637373  0.51152511  0.17359394  1
  C  C553  1  0.01932354  0.50893230  0.20723832  1
  C  C554  1  0.03031611  0.51391400  0.23686850  1
  C  C555  1  0.04839224  0.52121733  0.23277248  1
  C  C556  1  0.04118412  0.51579110  0.10531502  1
  C  C557  1  0.03276869  0.50816700  0.08018187  1
  C  C558  1  0.08565557  0.53537724  0.22291013  1
  C  C559  1  0.09562323  0.53847264  0.24888056  1
  C  C560  1  0.92951965  0.47261350  0.80535302  1
  C  C561  1  0.93453520  0.45915166  0.82887717  1
  C  C562  1  0.94588257  0.46452294  0.85862895  1
  C  C563  1  0.95208496  0.48313202  0.86466410  1
  C  C564  1  0.94705990  0.49665124  0.84149378  1
  C  C565  1  0.93574727  0.49150679  0.81169258  1
  C  C566  1  0.93100478  0.50512933  0.78950268  1
  C  C567  1  0.93726764  0.52328737  0.79645378  1
  C  C568  1  0.94840274  0.52826136  0.82584644  1
  C  C569  1  0.95323098  0.51504038  0.84810382  1
  C  C570  1  0.95079784  0.45138423  0.88183186  1
  C  C571  1  0.94469574  0.43319676  0.87594917  1
  C  C572  1  0.93352740  0.42782809  0.84673766  1
  C  C573  1  0.92849875  0.44064671  0.82354811  1
  C  C574  1  0.96285152  0.48876634  0.89439638  1
  C  C575  1  0.97125732  0.49640634  0.91946002  1
  C  C576  1  0.91846824  0.46734877  0.77627955  1
  C  C577  1  0.90858945  0.46333686  0.75042284  1
  C  C578  1  0.47343759  0.92881818  0.80173064  1
  C  C579  1  0.47780989  0.92074965  0.83430310  1
  C  C580  1  0.48264190  0.93204830  0.86439987  1
  C  C581  1  0.48286400  0.95119856  0.86200393  1
  C  C582  1  0.47884272  0.95925832  0.82939650  1
  C  C583  1  0.47396409  0.94806994  0.79914728  1
  C  C584  1  0.46983833  0.95607433  0.76726527  1
  C  C585  1  0.47060380  0.97476380  0.76501659  1
  C  C586  1  0.47575268  0.98582751  0.79452310  1
  C  C587  1  0.47975241  0.97814974  0.82634012  1
  C  C588  1  0.48727833  0.92403037  0.89594126  1
  C  C589  1  0.48692861  0.90537665  0.89799026  1
  C  C590  1  0.48191600  0.89427562  0.86847916  1
  C  C591  1  0.47749257  0.90191651  0.83689343  1
  C  C592  1  0.48834188  0.96237635  0.89142820  1
  C  C593  1  0.49493109  0.97231990  0.91570005  1
  C  C594  1  0.46908222  0.91781545  0.77233027  1
  C  C595  1  0.46594432  0.90792264  0.74618050  1
  O  O596  1  0.15647167  0.53250912  0.41732111  1
  O  O597  1  0.16188144  0.53407873  0.58690637  1
  O  O598  1  0.22608071  0.54751970  0.48571775  1
  O  O599  1  0.55471910  0.16021351  0.42260845  1
  O  O600  1  0.55337623  0.16456260  0.59309091  1
  O  O601  1  0.53989748  0.22531762  0.49070727  1
  O  O602  1  0.84496562  0.44931502  0.58396316  1
  O  O603  1  0.83991650  0.45080370  0.41364794  1
  O  O604  1  0.77961287  0.46410498  0.51514174  1
  O  O605  1  0.47206966  0.84710671  0.57721881  1
  O  O606  1  0.47055354  0.84252579  0.40745554  1
  O  O607  1  0.45685067  0.77771636  0.50931310  1
