# generated using pymatgen
data_Cd3H228C284N12(ClO6)2
_symmetry_space_group_name_H-M   'P 1'
_cell_length_a   78.61088396
_cell_length_b   79.82383771
_cell_length_c   36.46930061
_cell_angle_alpha   90.27275636
_cell_angle_beta   89.63675158
_cell_angle_gamma   86.62136579
_symmetry_Int_Tables_number   1
_chemical_formula_structural   Cd3H228C284N12(ClO6)2
_chemical_formula_sum   'Cd3 H228 C284 N12 Cl2 O12'
_cell_volume   228440.30466135
_cell_formula_units_Z   1
loop_
 _symmetry_equiv_pos_site_id
 _symmetry_equiv_pos_as_xyz
  1  'x, y, z'
loop_
 _atom_site_type_symbol
 _atom_site_label
 _atom_site_symmetry_multiplicity
 _atom_site_fract_x
 _atom_site_fract_y
 _atom_site_fract_z
 _atom_site_occupancy
  Cd  Cd0  1  0.01507515  0.53498651  0.00216235  1
  Cd  Cd1  1  0.53471900  0.01570852  -0.00089217  1
  Cd  Cd2  1  0.51459447  0.51559643  0.50141928  1
  H  H3  1  0.97738542  0.52996525  0.97812582  1
  H  H4  1  0.02314006  0.50723936  0.94005278  1
  H  H5  1  0.96133406  0.51781868  0.92694839  1
  H  H6  1  0.00876305  0.49393388  0.88789624  1
  H  H7  1  0.03450463  0.56517484  0.03146382  1
  H  H8  1  0.03353473  0.51680130  0.07305384  1
  H  H9  1  0.05723013  0.57235629  0.07478692  1
  H  H10  1  0.05614707  0.52224610  0.11841739  1
  H  H11  1  0.05242776  0.54013980  0.97823286  1
  H  H12  1  0.00683024  0.56260198  0.94029134  1
  H  H13  1  0.06873420  0.55209962  0.92703383  1
  H  H14  1  0.02147030  0.57571315  0.88810594  1
  H  H15  1  0.99561831  0.50476945  0.03046235  1
  H  H16  1  0.99633846  0.55327063  0.07254008  1
  H  H17  1  0.97271022  0.49766004  0.07388947  1
  H  H18  1  0.97357600  0.54787725  0.11816874  1
  H  H19  1  0.51075035  0.98751957  0.98383110  1
  H  H20  1  0.55854357  0.99380843  0.93809194  1
  H  H21  1  0.50316936  0.96864370  0.93313873  1
  H  H22  1  0.55234691  0.97585369  0.88438843  1
  H  H23  1  0.52979812  0.05393288  0.03365149  1
  H  H24  1  0.55731009  0.01141895  0.07116782  1
  H  H25  1  0.54409925  0.07225051  0.07765702  1
  H  H26  1  0.57214883  0.02804035  0.11750642  1
  H  H27  1  0.55850121  0.04351591  0.98267915  1
  H  H28  1  0.51099128  0.03691038  0.93706678  1
  H  H29  1  0.56617625  0.06248418  0.93240053  1
  H  H30  1  0.51718467  0.05516240  0.88413890  1
  H  H31  1  0.53966179  0.97695156  0.03313910  1
  H  H32  1  0.51194765  0.01969595  0.07048939  1
  H  H33  1  0.52483500  0.95882970  0.07674430  1
  H  H34  1  0.49664575  0.00328785  0.11657813  1
  H  H35  1  0.46277552  0.55121325  0.56071061  1
  H  H36  1  0.49044606  0.53455885  0.55843554  1
  H  H37  1  0.47582517  0.50837521  0.46651753  1
  H  H38  1  0.44621808  0.52144510  0.47026712  1
  H  H39  1  0.55048542  0.46311896  0.44423480  1
  H  H40  1  0.53469755  0.49091977  0.44760431  1
  H  H41  1  0.50774972  0.47699230  0.53952196  1
  H  H42  1  0.52036633  0.44752305  0.53554739  1
  H  H43  1  0.50147193  0.54835055  0.44782674  1
  H  H44  1  0.52670175  0.54913391  0.54706296  1
  H  H45  1  0.49647708  0.57933374  0.44783958  1
  H  H46  1  0.52399910  0.58034656  0.54971729  1
  H  H47  1  0.54565399  0.50480482  0.55789167  1
  H  H48  1  0.54822340  0.52706141  0.45596248  1
  H  H49  1  0.57735764  0.49799093  0.55813971  1
  H  H50  1  0.57994886  0.52407738  0.45502129  1
  H  H51  1  0.12165500  0.61237612  0.27746006  1
  H  H52  1  0.12227885  0.57409982  0.29380506  1
  H  H53  1  0.13807545  0.56230905  0.34086770  1
  H  H54  1  0.15835675  0.56363656  0.39161530  1
  H  H55  1  0.15942459  0.61726608  0.37781960  1
  H  H56  1  0.13961819  0.61594943  0.32543725  1
  H  H57  1  0.18023155  0.56740599  0.42419650  1
  H  H58  1  0.16086198  0.57260847  0.44770778  1
  H  H59  1  0.14915058  0.59652234  0.52685751  1
  H  H60  1  0.15085699  0.57706178  0.50387446  1
  H  H61  1  0.14963899  0.59589319  0.47835146  1
  H  H62  1  0.20294585  0.57216864  0.41548176  1
  H  H63  1  0.21496544  0.56001986  0.44764418  1
  H  H64  1  0.22209612  0.57940118  0.43201888  1
  H  H65  1  0.20451816  0.60902582  0.58329319  1
  H  H66  1  0.22044090  0.61283338  0.54991698  1
  H  H67  1  0.22073350  0.59350301  0.57324397  1
  H  H68  1  0.23478708  0.58352785  0.52677295  1
  H  H69  1  0.23442516  0.57865390  0.47922268  1
  H  H70  1  0.25903912  0.57846311  0.49587681  1
  H  H71  1  0.28963274  0.58164578  0.49190346  1
  H  H72  1  0.28103065  0.63541013  0.48286007  1
  H  H73  1  0.24992230  0.63188602  0.48065200  1
  H  H74  1  0.31239669  0.62024775  0.48320021  1
  H  H75  1  0.30835962  0.59121531  0.53564029  1
  H  H76  1  0.18083480  0.61805569  0.57105095  1
  H  H77  1  0.16114351  0.61117388  0.55567926  1
  H  H78  1  0.15709826  0.62573820  0.60788144  1
  H  H79  1  0.13548991  0.63053503  0.65622823  1
  H  H80  1  0.14403900  0.57885312  0.69105652  1
  H  H81  1  0.16581971  0.57441552  0.64279310  1
  H  H82  1  0.11773437  0.62001506  0.70674214  1
  H  H83  1  0.12884660  0.58404763  0.73271770  1
  H  H84  1  0.58917262  0.12877510  0.27848729  1
  H  H85  1  0.62583222  0.11352208  0.29212561  1
  H  H86  1  0.64125455  0.12690541  0.34211460  1
  H  H87  1  0.64212169  0.14653531  0.39393082  1
  H  H88  1  0.58954060  0.16265642  0.37515064  1
  H  H89  1  0.58839986  0.14291406  0.32339099  1
  H  H90  1  0.63999349  0.17273103  0.42783549  1
  H  H91  1  0.63279370  0.15487692  0.45047292  1
  H  H92  1  0.60865642  0.14818903  0.53018287  1
  H  H93  1  0.62856489  0.14694906  0.50763201  1
  H  H94  1  0.60958186  0.14748764  0.48168032  1
  H  H95  1  0.63103912  0.19604441  0.41283179  1
  H  H96  1  0.64459750  0.20617652  0.44330198  1
  H  H97  1  0.62500160  0.21622240  0.42946522  1
  H  H98  1  0.59418876  0.20536245  0.58048799  1
  H  H99  1  0.59071061  0.22046374  0.54557021  1
  H  H100  1  0.60998722  0.21936956  0.57032205  1
  H  H101  1  0.62052599  0.23091916  0.52214650  1
  H  H102  1  0.62452980  0.22956236  0.47417150  1
  H  H103  1  0.62325588  0.25539101  0.49669565  1
  H  H104  1  0.61736310  0.28584425  0.49939366  1
  H  H105  1  0.56393510  0.27893728  0.48141844  1
  H  H106  1  0.56987550  0.24815657  0.47991194  1
  H  H107  1  0.57125453  0.30457703  0.48602197  1
  H  H108  1  0.60724753  0.31647144  0.50099613  1
  H  H109  1  0.58995845  0.18305443  0.57780614  1
  H  H110  1  0.59338962  0.16287647  0.55833132  1
  H  H111  1  0.58012642  0.16425410  0.61059808  1
  H  H112  1  0.57178068  0.14419590  0.65713544  1
  H  H113  1  0.62425263  0.13702503  0.69146367  1
  H  H114  1  0.63269522  0.15624954  0.64245171  1
  H  H115  1  0.57714934  0.12639372  0.70498568  1
  H  H116  1  0.61356452  0.11883254  0.73538593  1
  H  H117  1  0.90471668  0.47717506  0.72393773  1
  H  H118  1  0.92189909  0.44163982  0.71034307  1
  H  H119  1  0.90936263  0.42539307  0.66067424  1
  H  H120  1  0.88991606  0.42325012  0.60870950  1
  H  H121  1  0.87100721  0.47449827  0.62700237  1
  H  H122  1  0.89063910  0.47694671  0.67873898  1
  H  H123  1  0.86350376  0.42388491  0.57439079  1
  H  H124  1  0.88113217  0.43199506  0.55152193  1
  H  H125  1  0.88673586  0.45633875  0.47267540  1
  H  H126  1  0.88890354  0.43665466  0.49424049  1
  H  H127  1  0.88767004  0.45523739  0.52107880  1
  H  H128  1  0.83939587  0.43101397  0.58965927  1
  H  H129  1  0.83034826  0.41732618  0.55791541  1
  H  H130  1  0.81864418  0.43565946  0.57354412  1
  H  H131  1  0.82861953  0.46694882  0.42275632  1
  H  H132  1  0.81285214  0.47030385  0.45727815  1
  H  H133  1  0.81521181  0.45086180  0.43387849  1
  H  H134  1  0.80368810  0.44105529  0.48266737  1
  H  H135  1  0.80474228  0.43816385  0.53092030  1
  H  H136  1  0.78003223  0.43725958  0.50667598  1
  H  H137  1  0.74942163  0.43996986  0.50280723  1
  H  H138  1  0.75040161  0.49372820  0.51883987  1
  H  H139  1  0.78191977  0.49078069  0.52183883  1
  H  H140  1  0.72246352  0.48126188  0.51135699  1
  H  H141  1  0.72558701  0.44304356  0.49501411  1
  H  H142  1  0.85037328  0.47402515  0.42866504  1
  H  H143  1  0.87142315  0.47029623  0.44426267  1
  H  H144  1  0.86714652  0.48381462  0.39232224  1
  H  H145  1  0.88731293  0.49266847  0.34546465  1
  H  H146  1  0.89720130  0.44090876  0.31187719  1
  H  H147  1  0.87783150  0.43202756  0.36111067  1
  H  H148  1  0.90603781  0.48726465  0.29683180  1
  H  H149  1  0.91452499  0.45074506  0.26940393  1
  H  H150  1  0.45599763  0.91413942  0.72907823  1
  H  H151  1  0.49434163  0.90968404  0.70793941  1
  H  H152  1  0.50436722  0.89343607  0.66105587  1
  H  H153  1  0.50129929  0.87371669  0.61009795  1
  H  H154  1  0.44676767  0.87671181  0.62633423  1
  H  H155  1  0.44979587  0.89604711  0.67885769  1
  H  H156  1  0.49565975  0.85230528  0.57850606  1
  H  H157  1  0.49206396  0.87135802  0.55439453  1
  H  H158  1  0.46867450  0.88385615  0.47532485  1
  H  H159  1  0.48828306  0.88109006  0.49812729  1
  H  H160  1  0.46913568  0.88372047  0.52383675  1
  H  H161  1  0.48988635  0.83016514  0.58659147  1
  H  H162  1  0.50165570  0.81761447  0.55411903  1
  H  H163  1  0.48145925  0.81180135  0.56969046  1
  H  H164  1  0.45282544  0.83009803  0.41914233  1
  H  H165  1  0.44799318  0.81486640  0.45252730  1
  H  H166  1  0.46765325  0.81334472  0.42878749  1
  H  H167  1  0.47733039  0.79933943  0.47444216  1
  H  H168  1  0.48256793  0.79951251  0.52170571  1
  H  H169  1  0.48114282  0.77502464  0.50467776  1
  H  H170  1  0.47605817  0.74534469  0.50449382  1
  H  H171  1  0.42197529  0.75712505  0.51864822  1
  H  H172  1  0.42741455  0.78740167  0.52098823  1
  H  H173  1  0.43194021  0.72803948  0.51222673  1
  H  H174  1  0.47039126  0.72101359  0.49553685  1
  H  H175  1  0.44494503  0.85381632  0.43163424  1
  H  H176  1  0.45287040  0.87281238  0.44731336  1
  H  H177  1  0.43831437  0.87740645  0.39603735  1
  H  H178  1  0.43431205  0.89884572  0.34839858  1
  H  H179  1  0.48633976  0.88792243  0.31122343  1
  H  H180  1  0.49002799  0.86649986  0.35910372  1
  H  H181  1  0.44550413  0.91544619  0.29715511  1
  H  H182  1  0.48194331  0.90339698  0.27121509  1
  H  H183  1  0.44165122  0.56308730  0.52715903  1
  H  H184  1  0.41678840  0.54331606  0.53142809  1
  H  H185  1  0.41479843  0.57486400  0.53099596  1
  H  H186  1  0.32810701  0.57310045  0.51531354  1
  H  H187  1  0.35033038  0.59616700  0.52814471  1
  H  H188  1  0.35486739  0.56496895  0.52774707  1
  H  H189  1  0.32742442  0.58074492  0.47013202  1
  H  H190  1  0.35225076  0.59688477  0.47999205  1
  H  H191  1  0.35545137  0.56462050  0.47918170  1
  H  H192  1  0.44234073  0.55926873  0.47953934  1
  H  H193  1  0.41674499  0.54270787  0.48303731  1
  H  H194  1  0.41559224  0.57488709  0.48251609  1
  H  H195  1  0.56256872  0.44265902  0.47831525  1
  H  H196  1  0.54222913  0.41834488  0.47387757  1
  H  H197  1  0.57428322  0.41654296  0.47346702  1
  H  H198  1  0.57143455  0.33180030  0.48410353  1
  H  H199  1  0.59549736  0.35222481  0.47514798  1
  H  H200  1  0.56374691  0.35766605  0.47555490  1
  H  H201  1  0.57615089  0.33139237  0.53119271  1
  H  H202  1  0.59607120  0.35388549  0.52352323  1
  H  H203  1  0.56341352  0.35819943  0.52405940  1
  H  H204  1  0.55866624  0.44322720  0.52592333  1
  H  H205  1  0.54185798  0.41807473  0.52226436  1
  H  H206  1  0.57452141  0.41699657  0.52199970  1
  H  H207  1  0.60484811  0.52031046  0.48746804  1
  H  H208  1  0.60903698  0.48827534  0.48459338  1
  H  H209  1  0.63268107  0.50838815  0.48359768  1
  H  H210  1  0.69657321  0.44632260  0.47793106  1
  H  H211  1  0.68997872  0.47773069  0.47962452  1
  H  H212  1  0.66743125  0.45627929  0.47941103  1
  H  H213  1  0.69709093  0.44580126  0.52583044  1
  H  H214  1  0.69031258  0.47731433  0.52799728  1
  H  H215  1  0.66781369  0.45574592  0.52785208  1
  H  H216  1  0.60377236  0.51908559  0.53570985  1
  H  H217  1  0.60951591  0.48794723  0.53289850  1
  H  H218  1  0.63324148  0.50825822  0.53207890  1
  H  H219  1  0.51909203  0.60558288  0.51960849  1
  H  H220  1  0.48661299  0.60992532  0.51909725  1
  H  H221  1  0.50712551  0.63322056  0.52145059  1
  H  H222  1  0.44426745  0.69745114  0.52365685  1
  H  H223  1  0.47601498  0.68887378  0.52530176  1
  H  H224  1  0.45384704  0.66717497  0.52191169  1
  H  H225  1  0.44542758  0.69818473  0.47551082  1
  H  H226  1  0.47677132  0.68971513  0.47714536  1
  H  H227  1  0.45451027  0.66806560  0.47344491  1
  H  H228  1  0.51900335  0.60460805  0.47127851  1
  H  H229  1  0.48731181  0.61023212  0.47079915  1
  H  H230  1  0.50768153  0.63370046  0.47298265  1
  C  C231  1  0.98394542  0.52203837  0.95741119  1
  C  C232  1  0.00942423  0.50927882  0.93632898  1
  C  C233  1  0.97507307  0.51514629  0.92920092  1
  C  C234  1  0.00137692  0.50186980  0.90742023  1
  C  C235  1  0.98358577  0.50452415  0.90280967  1
  C  C236  1  0.03963079  0.55594456  0.05102723  1
  C  C237  1  0.03914549  0.52896555  0.07414639  1
  C  C238  1  0.05199254  0.55998235  0.07548573  1
  C  C239  1  0.05143201  0.53211271  0.09981843  1
  C  C240  1  0.05782363  0.54822394  0.10240958  1
  C  C241  1  0.04597955  0.54798396  0.95756690  1
  C  C242  1  0.02057263  0.56059884  0.93654694  1
  C  C243  1  0.05497991  0.55476104  0.92933454  1
  C  C244  1  0.02876526  0.56788738  0.90761499  1
  C  C245  1  0.04658238  0.56524452  0.90297094  1
  C  C246  1  0.99039910  0.51402369  0.05020125  1
  C  C247  1  0.99075002  0.54109889  0.07361927  1
  C  C248  1  0.97796034  0.51002868  0.07473049  1
  C  C249  1  0.97839694  0.53798786  0.09940152  1
  C  C250  1  0.97210674  0.52184631  0.10193722  1
  C  C251  1  0.51956660  0.98490932  0.96105646  1
  C  C252  1  0.54613018  0.98851830  0.93540055  1
  C  C253  1  0.51533806  0.97459726  0.93269286  1
  C  C254  1  0.54266143  0.97853059  0.90552352  1
  C  C255  1  0.52654402  0.97178863  0.90223094  1
  C  C256  1  0.53955241  0.04863941  0.05208800  1
  C  C257  1  0.55483999  0.02498626  0.07292660  1
  C  C258  1  0.54741282  0.05877256  0.07680660  1
  C  C259  1  0.56300061  0.03423215  0.09882400  1
  C  C260  1  0.55967568  0.05181912  0.10155961  1
  C  C261  1  0.54975006  0.04612883  0.96007956  1
  C  C262  1  0.52334536  0.04235899  0.93455207  1
  C  C263  1  0.55401100  0.05653255  0.93196979  1
  C  C264  1  0.52682817  0.05251678  0.90506241  1
  C  C265  1  0.54285736  0.05950194  0.90186193  1
  C  C266  1  0.52976655  0.98234849  0.05149116  1
  C  C267  1  0.51437617  0.00613473  0.07224848  1
  C  C268  1  0.52160525  0.97231880  0.07596428  1
  C  C269  1  0.50593776  0.99701936  0.09794126  1
  C  C270  1  0.50914453  0.97942703  0.10053885  1
  C  C271  1  0.50608169  0.55578253  0.47061681  1
  C  C272  1  0.50357165  0.57328095  0.47024910  1
  C  C273  1  0.51069908  0.58276150  0.49803057  1
  C  C274  1  0.51875302  0.57375341  0.52652210  1
  C  C275  1  0.52025285  0.55623000  0.52509720  1
  C  C276  1  0.55382500  0.50818863  0.53464151  1
  C  C277  1  0.57154812  0.50505815  0.53544589  1
  C  C278  1  0.58158258  0.51165669  0.50769213  1
  C  C279  1  0.57291331  0.51930187  0.47820472  1
  C  C280  1  0.55516043  0.52106576  0.47873264  1
  C  C281  1  0.45282173  0.53932921  0.51251670  1
  C  C282  1  0.46504752  0.54166275  0.53948656  1
  C  C283  1  0.48056142  0.53231570  0.53826858  1
  C  C284  1  0.47224417  0.51746149  0.48813506  1
  C  C285  1  0.45595782  0.52555991  0.48887854  1
  C  C286  1  0.53849742  0.45372235  0.49295501  1
  C  C287  1  0.54097423  0.46563476  0.46576431  1
  C  C288  1  0.53200064  0.48117735  0.46748925  1
  C  C289  1  0.51680605  0.47326019  0.51770426  1
  C  C290  1  0.52465111  0.45705409  0.51685572  1
  C  C291  1  0.11956578  0.59904922  0.27424132  1
  C  C292  1  0.12608969  0.58685159  0.29867857  1
  C  C293  1  0.13733750  0.58887525  0.32877008  1
  C  C294  1  0.14278388  0.57436190  0.34885449  1
  C  C295  1  0.15391590  0.57516258  0.37788215  1
  C  C296  1  0.15966451  0.59069409  0.38852588  1
  C  C297  1  0.15465287  0.60530050  0.36932032  1
  C  C298  1  0.14359190  0.60447513  0.33990240  1
  C  C299  1  0.17332062  0.57731855  0.44035103  1
  C  C300  1  0.18320864  0.58259320  0.47308340  1
  C  C301  1  0.20117875  0.58166058  0.47146995  1
  C  C302  1  0.21018960  0.58832488  0.50101489  1
  C  C303  1  0.20149322  0.59632542  0.53104382  1
  C  C304  1  0.18347797  0.59766245  0.53147925  1
  C  C305  1  0.17422389  0.59017789  0.50330347  1
  C  C306  1  0.15510981  0.58998439  0.50322869  1
  C  C307  1  0.21070102  0.57297619  0.44020136  1
  C  C308  1  0.21217119  0.60331975  0.56083591  1
  C  C309  1  0.22930863  0.58752550  0.50020003  1
  C  C310  1  0.25241989  0.60517434  0.48993044  1
  C  C311  1  0.26362955  0.59101457  0.49285851  1
  C  C312  1  0.28105781  0.59288217  0.49213829  1
  C  C313  1  0.28796027  0.60885913  0.49054385  1
  C  C314  1  0.27629430  0.62289109  0.48524881  1
  C  C315  1  0.25879276  0.62101395  0.48454208  1
  C  C316  1  0.30629377  0.60939444  0.49413329  1
  C  C317  1  0.31496706  0.59657973  0.51230948  1
  C  C318  1  0.17424809  0.60683845  0.56264566  1
  C  C319  1  0.16206209  0.59936870  0.62092555  1
  C  C320  1  0.15388437  0.61533261  0.62541656  1
  C  C321  1  0.14189754  0.61810288  0.65321114  1
  C  C322  1  0.13765092  0.60513184  0.67767350  1
  C  C323  1  0.14673628  0.58929082  0.67319593  1
  C  C324  1  0.15892649  0.58661806  0.64575024  1
  C  C325  1  0.12467570  0.60778673  0.70523782  1
  C  C326  1  0.12051905  0.59554347  0.73045556  1
  C  C327  1  0.60017849  0.11970385  0.27578657  1
  C  C328  1  0.61435956  0.12144951  0.29806620  1
  C  C329  1  0.61482540  0.13313168  0.32805584  1
  C  C330  1  0.62980205  0.13463997  0.34925745  1
  C  C331  1  0.63028406  0.14566994  0.37874818  1
  C  C332  1  0.61568160  0.15570945  0.38822597  1
  C  C333  1  0.60080429  0.15470761  0.36768001  1
  C  C334  1  0.60029153  0.14358858  0.33836465  1
  C  C335  1  0.62894284  0.16774879  0.44197363  1
  C  C336  1  0.62270753  0.17881885  0.47347567  1
  C  C337  1  0.62273817  0.19645494  0.46982757  1
  C  C338  1  0.61573401  0.20674717  0.49837105  1
  C  C339  1  0.60810026  0.19968128  0.52963487  1
  C  C340  1  0.60794229  0.18204076  0.53256582  1
  C  C341  1  0.61536233  0.17151411  0.50470405  1
  C  C342  1  0.61547895  0.15269629  0.50627550  1
  C  C343  1  0.63113866  0.20407014  0.43729923  1
  C  C344  1  0.60034586  0.21167193  0.55786799  1
  C  C345  1  0.61610270  0.22554281  0.49619799  1
  C  C346  1  0.59679356  0.24980417  0.48911648  1
  C  C347  1  0.61014369  0.26043885  0.49396513  1
  C  C348  1  0.60681952  0.27779718  0.49488003  1
  C  C349  1  0.59013549  0.28493128  0.49014113  1
  C  C350  1  0.57695070  0.27376446  0.48479727  1
  C  C351  1  0.58017748  0.25651744  0.48415708  1
  C  C352  1  0.58499478  0.30279283  0.49044916  1
  C  C353  1  0.59350257  0.31684650  0.49721124  1
  C  C354  1  0.59976443  0.17436663  0.56546895  1
  C  C355  1  0.60717915  0.16045335  0.62160742  1
  C  C356  1  0.58994344  0.15769564  0.62696995  1
  C  C357  1  0.58516518  0.14682477  0.65410601  1
  C  C358  1  0.59717517  0.13889892  0.67824486  1
  C  C359  1  0.61451915  0.14268440  0.67347362  1
  C  C360  1  0.61936770  0.15340388  0.64575355  1
  C  C361  1  0.59085589  0.12788028  0.70561381  1
  C  C362  1  0.59969564  0.11890498  0.73303810  1
  C  C363  1  0.91445807  0.46680703  0.72625396  1
  C  C364  1  0.91339624  0.45255000  0.70423337  1
  C  C365  1  0.90176544  0.45129471  0.67433120  1
  C  C366  1  0.90106183  0.43627544  0.65334254  1
  C  C367  1  0.89011118  0.43506158  0.62385598  1
  C  C368  1  0.87930629  0.44892359  0.61429555  1
  C  C369  1  0.87952386  0.46381833  0.63462438  1
  C  C370  1  0.89058569  0.46507525  0.66388935  1
  C  C371  1  0.86791389  0.43507672  0.56046877  1
  C  C372  1  0.85640122  0.44075933  0.52947189  1
  C  C373  1  0.83854073  0.43996476  0.53348615  1
  C  C374  1  0.82773510  0.44696624  0.50600996  1
  C  C375  1  0.83462899  0.45453560  0.47459855  1
  C  C376  1  0.85243280  0.45571839  0.47177552  1
  C  C377  1  0.86349580  0.44864674  0.49872180  1
  C  C378  1  0.88254409  0.44931323  0.49644701  1
  C  C379  1  0.83138427  0.43066605  0.56520567  1
  C  C380  1  0.82235860  0.46102695  0.44577305  1
  C  C381  1  0.80869563  0.44617309  0.50836478  1
  C  C382  1  0.78312113  0.46395137  0.51332661  1
  C  C383  1  0.77376090  0.44978642  0.50852434  1
  C  C384  1  0.75609485  0.45142397  0.50663416  1
  C  C385  1  0.74705493  0.46723562  0.50984399  1
  C  C386  1  0.75688026  0.48134511  0.51570394  1
  C  C387  1  0.77459998  0.47976574  0.51736346  1
  C  C388  1  0.72847330  0.46866423  0.50771946  1
  C  C389  1  0.71902924  0.45521548  0.50086073  1
  C  C390  1  0.85949640  0.46418306  0.43882455  1
  C  C391  1  0.87241781  0.45722390  0.38142223  1
  C  C392  1  0.87437613  0.47435702  0.37601825  1
  C  C393  1  0.88524572  0.47937618  0.34884912  1
  C  C394  1  0.89386407  0.46759335  0.32493766  1
  C  C395  1  0.89086103  0.45032475  0.32980483  1
  C  C396  1  0.88009131  0.44526972  0.35745948  1
  C  C397  1  0.90479360  0.47371772  0.29726661  1
  C  C398  1  0.91389799  0.46445449  0.27023109  1
  C  C399  1  0.46978834  0.91507719  0.73020564  1
  C  C400  1  0.48093120  0.90723473  0.70449842  1
  C  C401  1  0.47750441  0.89625656  0.67447644  1
  C  C402  1  0.49171054  0.88974437  0.65361379  1
  C  C403  1  0.48994854  0.87887850  0.62442967  1
  C  C404  1  0.47370707  0.87441359  0.61429578  1
  C  C405  1  0.45934224  0.88048522  0.63430560  1
  C  C406  1  0.46113720  0.89129570  0.66390138  1
  C  C407  1  0.48622082  0.85966089  0.56215967  1
  C  C408  1  0.48035566  0.85004486  0.52952707  1
  C  C409  1  0.48054048  0.83236151  0.53069831  1
  C  C410  1  0.47362566  0.82375435  0.50086012  1
  C  C411  1  0.46587282  0.83256149  0.47112929  1
  C  C412  1  0.46544644  0.85029131  0.47091588  1
  C  C413  1  0.47342704  0.85908146  0.49912988  1
  C  C414  1  0.47485550  0.87778115  0.49896941  1
  C  C415  1  0.48870326  0.82258290  0.56173725  1
  C  C416  1  0.45816995  0.82236311  0.44145261  1
  C  C417  1  0.47366729  0.80494762  0.50127968  1
  C  C418  1  0.45443551  0.78321315  0.51129077  1
  C  C419  1  0.46807376  0.77129606  0.50732542  1
  C  C420  1  0.46511460  0.75431268  0.50704812  1
  C  C421  1  0.44844932  0.74864179  0.51022003  1
  C  C422  1  0.43495542  0.76103458  0.51555003  1
  C  C423  1  0.43790780  0.77803688  0.51655589  1
  C  C424  1  0.44529378  0.73087038  0.50850173  1
  C  C425  1  0.45733172  0.71817091  0.50240812  1
  C  C426  1  0.45665536  0.85974189  0.44001156  1
  C  C427  1  0.46485743  0.87130250  0.38190285  1
  C  C428  1  0.44899594  0.88007278  0.37817410  1
  C  C429  1  0.44665504  0.89195382  0.35073348  1
  C  C430  1  0.45994677  0.89546214  0.32575307  1
  C  C431  1  0.47565996  0.88582835  0.32950746  1
  C  C432  1  0.47791378  0.87380142  0.35670447  1
  C  C433  1  0.45768582  0.90819015  0.29829795  1
  C  C434  1  0.47028611  0.91169780  0.27275960  1
  C  C435  1  0.43930964  0.55348261  0.50617323  1
  C  C436  1  0.42026084  0.55029927  0.50676564  1
  C  C437  1  0.41085622  0.56777121  0.50636464  1
  C  C438  1  0.39244887  0.56835088  0.50523905  1
  C  C439  1  0.32952605  0.58454467  0.49887955  1
  C  C440  1  0.34831723  0.58899920  0.50284838  1
  C  C441  1  0.35894154  0.57219717  0.50346965  1
  C  C442  1  0.37727230  0.57283980  0.50436007  1
  C  C443  1  0.55277779  0.44036100  0.49926846  1
  C  C444  1  0.54944918  0.42165305  0.49841098  1
  C  C445  1  0.56720471  0.41250425  0.49815755  1
  C  C446  1  0.56780777  0.39443251  0.49871582  1
  C  C447  1  0.58212922  0.33250856  0.50363992  1
  C  C448  1  0.58803895  0.35052098  0.50033700  1
  C  C449  1  0.57123155  0.36150243  0.49974803  1
  C  C450  1  0.57224509  0.37946122  0.49909071  1
  C  C451  1  0.60091145  0.51225195  0.51016221  1
  C  C452  1  0.61198030  0.49579274  0.50892978  1
  C  C453  1  0.63070526  0.50026123  0.50782757  1
  C  C454  1  0.64296854  0.48612140  0.50666396  1
  C  C455  1  0.69992512  0.45385145  0.50210319  1
  C  C456  1  0.68795571  0.46968502  0.50352288  1
  C  C457  1  0.66953094  0.46419407  0.50404340  1
  C  C458  1  0.65654116  0.47772747  0.50548846  1
  C  C459  1  0.51144248  0.60179080  0.49603707  1
  C  C460  1  0.49475990  0.61274317  0.49546623  1
  C  C461  1  0.49921797  0.63122897  0.49673550  1
  C  C462  1  0.48483520  0.64332705  0.49694470  1
  C  C463  1  0.45295542  0.70015311  0.50069573  1
  C  C464  1  0.46827764  0.68739690  0.50051410  1
  C  C465  1  0.46246239  0.66941906  0.49831751  1
  C  C466  1  0.47629307  0.65670101  0.49774128  1
  C  C467  1  0.05559003  0.57244284  0.87449144  1
  C  C468  1  0.06457009  0.57834604  0.85054572  1
  C  C469  1  0.07458601  0.58449035  0.82515270  1
  C  C470  1  0.08448469  0.58975035  0.80178747  1
  C  C471  1  0.09564243  0.59426419  0.77692166  1
  C  C472  1  0.10684584  0.59696013  0.75387868  1
  C  C473  1  0.54809684  0.06889016  0.87200528  1
  C  C474  1  0.55597239  0.07688335  0.84919519  1
  C  C475  1  0.56513115  0.08530253  0.82569100  1
  C  C476  1  0.57376341  0.09318510  0.80372339  1
  C  C477  1  0.58295301  0.10158686  0.78032941  1
  C  C478  1  0.59106915  0.10969013  0.75793012  1
  C  C479  1  0.96113429  0.51705556  0.12961624  1
  C  C480  1  0.95284917  0.50914092  0.15177971  1
  C  C481  1  0.94467825  0.49975465  0.17510530  1
  C  C482  1  0.93761459  0.49054169  0.19708805  1
  C  C483  1  0.93008740  0.48072962  0.22054010  1
  C  C484  1  0.92263857  0.47256230  0.24387453  1
  C  C485  1  0.50060192  0.96994968  0.12619590  1
  C  C486  1  0.49322040  0.96183367  0.14946290  1
  C  C487  1  0.48529786  0.95311108  0.17449418  1
  C  C488  1  0.47842890  0.94469869  0.19838712  1
  C  C489  1  0.47265280  0.93489480  0.22422852  1
  C  C490  1  0.46915330  0.92469338  0.24841030  1
  C  C491  1  0.56784246  0.06152637  0.12738515  1
  C  C492  1  0.57477062  0.07004346  0.15061173  1
  C  C493  1  0.58220946  0.07920608  0.17560694  1
  C  C494  1  0.58870370  0.08797171  0.19936569  1
  C  C495  1  0.59465624  0.09777552  0.22513146  1
  C  C496  1  0.59907499  0.10751592  0.24946901  1
  C  C497  1  0.06891072  0.55299904  0.12974664  1
  C  C498  1  0.07749475  0.56054542  0.15194219  1
  C  C499  1  0.08611305  0.56944547  0.17541062  1
  C  C500  1  0.09380847  0.57800892  0.19767439  1
  C  C501  1  0.10199963  0.58710889  0.22142930  1
  C  C502  1  0.10996084  0.59451698  0.24526786  1
  C  C503  1  0.97474739  0.49718295  0.87434035  1
  C  C504  1  0.96606550  0.49102980  0.85030458  1
  C  C505  1  0.95649727  0.48452065  0.82468362  1
  C  C506  1  0.94719071  0.47870238  0.80101521  1
  C  C507  1  0.93683162  0.47319538  0.77571972  1
  C  C508  1  0.92681574  0.46865103  0.75201593  1
  C  C509  1  0.52113890  0.96278346  0.87196312  1
  C  C510  1  0.51263761  0.95527874  0.84946629  1
  C  C511  1  0.50285885  0.94746481  0.82626641  1
  C  C512  1  0.49367274  0.94014080  0.80451385  1
  C  C513  1  0.48389488  0.93232847  0.78131389  1
  C  C514  1  0.47613121  0.92446565  0.75787474  1
  N  N515  1  0.02879255  0.55063408  0.96175384  1
  N  N516  1  0.99704246  0.52938927  0.04917533  1
  N  N517  1  0.00110755  0.51940940  0.96152629  1
  N  N518  1  0.03298047  0.54058470  0.04978067  1
  N  N519  1  0.53478711  0.03828995  0.96141921  1
  N  N520  1  0.52598866  0.99913274  0.04807636  1
  N  N521  1  0.53456541  0.99268436  0.96236677  1
  N  N522  1  0.54344460  0.03185385  0.04855877  1
  N  N523  1  0.48449440  0.52091517  0.51197501  1
  N  N524  1  0.52054026  0.48523644  0.49385546  1
  N  N525  1  0.51417683  0.54728919  0.49749718  1
  N  N526  1  0.54577278  0.51579216  0.50665127  1
  Cl  Cl527  1  0.51359240  0.51687442  0.43015990  1
  Cl  Cl528  1  0.51900697  0.51285125  0.57289159  1
  O  O529  1  0.17039315  0.59212833  0.41725955  1
  O  O530  1  0.17357594  0.59549646  0.59371628  1
  O  O531  1  0.23520964  0.60409249  0.49164508  1
  O  O532  1  0.61488237  0.16711157  0.41614938  1
  O  O533  1  0.61246931  0.17007544  0.59347944  1
  O  O534  1  0.59897370  0.23275043  0.48900495  1
  O  O535  1  0.86777348  0.44898209  0.58662743  1
  O  O536  1  0.86287420  0.45183352  0.40972806  1
  O  O537  1  0.80046931  0.46293589  0.51407363  1
  O  O538  1  0.47133508  0.86404217  0.58532230  1
  O  O539  1  0.46827885  0.85984252  0.40876985  1
  O  O540  1  0.45657659  0.80000880  0.51051889  1
