# generated using pymatgen
data_Mg3H172C226(N8O15)2
_symmetry_space_group_name_H-M   'P 1'
_cell_length_a   50.90710425
_cell_length_b   54.34887880
_cell_length_c   25.95918374
_cell_angle_alpha   96.41189783
_cell_angle_beta   90.50873119
_cell_angle_gamma   91.63009697
_symmetry_Int_Tables_number   1
_chemical_formula_structural   Mg3H172C226(N8O15)2
_chemical_formula_sum   'Mg3 H172 C226 N16 O30'
_cell_volume   71339.01123264
_cell_formula_units_Z   1
loop_
 _symmetry_equiv_pos_site_id
 _symmetry_equiv_pos_as_xyz
  1  'x, y, z'
loop_
 _atom_site_type_symbol
 _atom_site_label
 _atom_site_symmetry_multiplicity
 _atom_site_fract_x
 _atom_site_fract_y
 _atom_site_fract_z
 _atom_site_occupancy
  Mg  Mg0  1  0.50193495  0.52186852  0.49425846  1
  Mg  Mg1  1  0.50554410  0.51639394  0.76950894  1
  Mg  Mg2  1  0.50398209  0.51904519  0.63177115  1
  H  H3  1  0.05770527  0.02867179  0.12732444  1
  H  H4  1  0.98510135  0.08307964  0.14859214  1
  H  H5  1  0.02234744  0.95540253  0.11141242  1
  H  H6  1  0.94993211  0.00973859  0.13267398  1
  H  H7  1  0.50794333  0.55593091  0.57027145  1
  H  H8  1  0.47300842  0.49745541  0.68720415  1
  H  H9  1  0.49964653  0.48244497  0.69335316  1
  H  H10  1  0.53461202  0.54100387  0.57651607  1
  H  H11  1  0.32306040  0.53144703  0.53705333  1
  H  H12  1  0.37241470  0.50071588  0.50519796  1
  H  H13  1  0.37176944  0.47353505  0.42786077  1
  H  H14  1  0.35011273  0.45318513  0.34837508  1
  H  H15  1  0.27997433  0.49394281  0.38647229  1
  H  H16  1  0.30164079  0.51432141  0.46627542  1
  H  H17  1  0.32278899  0.43166331  0.29640790  1
  H  H18  1  0.33385927  0.45867638  0.26984790  1
  H  H19  1  0.31455235  0.48871207  0.16178193  1
  H  H20  1  0.33865703  0.46976494  0.18446708  1
  H  H21  1  0.31898881  0.48807481  0.22897615  1
  H  H22  1  0.28983314  0.41470371  0.31348141  1
  H  H23  1  0.29254959  0.38863015  0.26683848  1
  H  H24  1  0.26132531  0.39849197  0.28896267  1
  H  H25  1  0.24086520  0.43718759  0.08000253  1
  H  H26  1  0.22069882  0.42502762  0.12694223  1
  H  H27  1  0.24231097  0.40573583  0.08919711  1
  H  H28  1  0.23790564  0.38568484  0.15718552  1
  H  H29  1  0.24624882  0.38360840  0.22339357  1
  H  H30  1  0.21966964  0.35809135  0.19296408  1
  H  H31  1  0.18368105  0.32844055  0.18398162  1
  H  H32  1  0.12896748  0.38742205  0.22306578  1
  H  H33  1  0.16640676  0.41776163  0.23029662  1
  H  H34  1  0.11164396  0.34225748  0.20475311  1
  H  H35  1  0.15673137  0.30625656  0.17435674  1
  H  H36  1  0.25899639  0.46837517  0.09440998  1
  H  H37  1  0.28949066  0.48317813  0.11222639  1
  H  H38  1  0.26625249  0.49376334  0.04466159  1
  H  H39  1  0.27673221  0.52068607  0.97714810  1
  H  H40  1  0.33452510  0.46924855  0.91445643  1
  H  H41  1  0.32402841  0.44220788  0.98247593  1
  H  H42  1  0.30103868  0.53066634  0.90262043  1
  H  H43  1  0.34043131  0.49224294  0.85197148  1
  H  H44  1  0.52606308  0.37627452  0.83550043  1
  H  H45  1  0.47348032  0.34640748  0.84976559  1
  H  H46  1  0.47072152  0.32032171  0.91913159  1
  H  H47  1  0.48917380  0.30340131  0.99537150  1
  H  H48  1  0.56135250  0.34556413  0.98018488  1
  H  H49  1  0.54289509  0.36255327  0.90371501  1
  H  H50  1  0.51436054  0.28454075  0.04523057  1
  H  H51  1  0.50291351  0.31227902  0.07867975  1
  H  H52  1  0.51901918  0.34688729  0.19945612  1
  H  H53  1  0.49540588  0.32628512  0.16685632  1
  H  H54  1  0.51715552  0.34387191  0.13122701  1
  H  H55  1  0.54763597  0.26812229  0.02746380  1
  H  H56  1  0.54255182  0.24336537  0.06536372  1
  H  H57  1  0.57479458  0.25355871  0.05120040  1
  H  H58  1  0.58834063  0.30025731  0.27591490  1
  H  H59  1  0.60989976  0.28704500  0.22797279  1
  H  H60  1  0.58652205  0.26824511  0.25655110  1
  H  H61  1  0.59255799  0.24548920  0.18284595  1
  H  H62  1  0.58657452  0.24084303  0.11464138  1
  H  H63  1  0.61253449  0.21682186  0.14080651  1
  H  H64  1  0.64911688  0.18937411  0.14582891  1
  H  H65  1  0.70387497  0.25083856  0.13404227  1
  H  H66  1  0.66641411  0.27895005  0.13086414  1
  H  H67  1  0.72131410  0.21116901  0.14068607  1
  H  H68  1  0.68279699  0.16650896  0.14973261  1
  H  H69  1  0.57156778  0.33058610  0.26885369  1
  H  H70  1  0.54225256  0.34398879  0.25084250  1
  H  H71  1  0.56301404  0.35781012  0.32609831  1
  H  H72  1  0.55066466  0.38680662  0.40092449  1
  H  H73  1  0.48943050  0.33538119  0.43849862  1
  H  H74  1  0.50167097  0.30632212  0.36289477  1
  H  H75  1  0.52447926  0.39855730  0.47456483  1
  H  H76  1  0.47938572  0.36282816  0.50475116  1
  H  H77  1  0.49232488  0.65384691  0.75720382  1
  H  H78  1  0.54510941  0.68148386  0.79416315  1
  H  H79  1  0.54510248  0.71008222  0.87216057  1
  H  H80  1  0.52393058  0.72957668  0.95076690  1
  H  H81  1  0.45267603  0.68661295  0.90930258  1
  H  H82  1  0.47396971  0.66683608  0.83077001  1
  H  H83  1  0.49681827  0.75024380  1.00196417  1
  H  H84  1  0.50720481  0.72355907  0.02879472  1
  H  H85  1  0.48715411  0.69273051  0.13582855  1
  H  H86  1  0.51171303  0.71249323  0.11397139  1
  H  H87  1  0.49141146  0.69361217  0.06877085  1
  H  H88  1  0.46425830  0.76623822  0.98403161  1
  H  H89  1  0.46785339  0.79237894  0.03082305  1
  H  H90  1  0.43625631  0.78158818  0.00774829  1
  H  H91  1  0.41517838  0.74204147  0.21584916  1
  H  H92  1  0.39526906  0.75371494  0.16841896  1
  H  H93  1  0.41753130  0.77358277  0.20705400  1
  H  H94  1  0.41389787  0.79392040  0.13949586  1
  H  H95  1  0.42220440  0.79648339  0.07368396  1
  H  H96  1  0.39523744  0.82136651  0.10374852  1
  H  H97  1  0.35843363  0.84899975  0.11159107  1
  H  H98  1  0.30464591  0.78675518  0.06935277  1
  H  H99  1  0.34226349  0.75850562  0.06347465  1
  H  H100  1  0.28675683  0.82681417  0.08650568  1
  H  H101  1  0.32465562  0.87196428  0.11758114  1
  H  H102  1  0.43234712  0.71141587  0.20190092  1
  H  H103  1  0.46231773  0.69745961  0.18475179  1
  H  H104  1  0.43908493  0.68597106  0.25184577  1
  H  H105  1  0.44908673  0.65932086  0.31957353  1
  H  H106  1  0.50826919  0.71270480  0.38444001  1
  H  H107  1  0.49845113  0.73934375  0.31588690  1
  H  H108  1  0.47322335  0.65003911  0.39458225  1
  H  H109  1  0.51639280  0.68791439  0.44343647  1
  H  H110  1  0.65604759  0.53031696  0.73214932  1
  H  H111  1  0.69434825  0.48711225  0.74490369  1
  H  H112  1  0.72548619  0.49073516  0.81594383  1
  H  H113  1  0.74528194  0.51291248  0.89543526  1
  H  H114  1  0.69274084  0.57311675  0.88443975  1
  H  H115  1  0.67270052  0.55078824  0.80472435  1
  H  H116  1  0.76465461  0.53986401  0.94995774  1
  H  H117  1  0.73741806  0.52618422  0.97933927  1
  H  H118  1  0.70296101  0.54221443  0.09779707  1
  H  H119  1  0.72496718  0.52094166  0.06717509  1
  H  H120  1  0.70425394  0.53795263  0.02958971  1
  H  H121  1  0.78123492  0.57095317  0.93832748  1
  H  H122  1  0.80922637  0.57109837  0.97921466  1
  H  H123  1  0.79508276  0.59918362  0.96648605  1
  H  H124  1  0.75299814  0.61342061  0.18688318  1
  H  H125  1  0.76360835  0.63358617  0.14152756  1
  H  H126  1  0.78641380  0.61539772  0.17080777  1
  H  H127  1  0.80817362  0.62036010  0.10093346  1
  H  H128  1  0.81165464  0.61163173  0.03323542  1
  H  H129  1  0.83605365  0.63929741  0.05983211  1
  H  H130  1  0.86318144  0.67700399  0.07043059  1
  H  H131  1  0.79395832  0.72052136  0.05626591  1
  H  H132  1  0.76612907  0.68181500  0.04738435  1
  H  H133  1  0.83627826  0.74152647  0.06865790  1
  H  H134  1  0.88562782  0.70976295  0.07922081  1
  H  H135  1  0.71954966  0.59495277  0.17249686  1
  H  H136  1  0.70711734  0.56482539  0.15190426  1
  H  H137  1  0.69215280  0.58512695  0.22650573  1
  H  H138  1  0.66477996  0.57273915  0.29742502  1
  H  H139  1  0.72614051  0.52576591  0.34169429  1
  H  H140  1  0.75351219  0.53810025  0.27015750  1
  H  H141  1  0.65666945  0.54952083  0.36981464  1
  H  H142  1  0.70016592  0.51527119  0.40402176  1
  H  H143  1  0.01327295  0.13351157  0.14644262  1
  H  H144  1  0.02855234  0.17656413  0.15450829  1
  H  H145  1  0.10894810  0.15242775  0.15686688  1
  H  H146  1  0.09271102  0.10960289  0.14877365  1
  H  H147  1  0.12199997  0.18731166  0.16340803  1
  H  H148  1  0.13749051  0.23024002  0.17188162  1
  H  H149  1  0.05811344  0.25452926  0.16949092  1
  H  H150  1  0.04170737  0.21174522  0.16095368  1
  H  H151  1  0.87012226  0.04562798  0.13217000  1
  H  H152  1  0.82777128  0.06546927  0.13459595  1
  H  H153  1  0.86844454  0.13722145  0.14505295  1
  H  H154  1  0.91023793  0.11652449  0.14245893  1
  H  H155  1  0.83443179  0.15343222  0.14778139  1
  H  H156  1  0.79232170  0.17339568  0.15043754  1
  H  H157  1  0.75184771  0.10253648  0.13994972  1
  H  H158  1  0.79359589  0.08185087  0.13720067  1
  H  H159  1  0.09733735  0.92189264  0.11793426  1
  H  H160  1  0.13914781  0.90123915  0.11553941  1
  H  H161  1  0.17975772  0.97301290  0.12577659  1
  H  H162  1  0.13738115  0.99281395  0.12799951  1
  H  H163  1  0.21399437  0.95661694  0.12335967  1
  H  H164  1  0.25574031  0.93593012  0.12060055  1
  H  H165  1  0.21525258  0.86509202  0.11067698  1
  H  H166  1  0.17315304  0.88506124  0.11331839  1
  H  H167  1  0.99402288  0.90557226  0.12409594  1
  H  H168  1  0.97870180  0.86249727  0.11669162  1
  H  H169  1  0.89914715  0.88613869  0.09393029  1
  H  H170  1  0.91538457  0.92892763  0.10162461  1
  H  H171  1  0.88612915  0.85195789  0.08795763  1
  H  H172  1  0.87029462  0.80917034  0.08062055  1
  H  H173  1  0.94871859  0.78477833  0.10284612  1
  H  H174  1  0.96549962  0.82747016  0.11047896  1
  C  C175  1  0.96444471  0.04765013  0.13782674  1
  C  C176  1  0.96738497  0.02180013  0.13314170  1
  C  C177  1  0.99216215  0.01143984  0.12927874  1
  C  C178  1  0.02036932  0.97541983  0.11833822  1
  C  C179  1  0.99533241  0.98509538  0.12300438  1
  C  C180  1  0.04310338  0.99080277  0.12222793  1
  C  C181  1  0.04020751  0.01667598  0.12692101  1
  C  C182  1  0.01547890  0.02714528  0.13083597  1
  C  C183  1  0.01227083  0.05350968  0.13716131  1
  C  C184  1  0.98716888  0.06307156  0.14173519  1
  C  C185  1  0.55188840  0.52503127  0.70648072  1
  C  C186  1  0.51667409  0.47899608  0.54667690  1
  C  C187  1  0.55841759  0.53923582  0.49675484  1
  C  C188  1  0.51318385  0.46329030  0.75773589  1
  C  C189  1  0.45600597  0.51335395  0.55743132  1
  C  C190  1  0.49074846  0.55889927  0.71656220  1
  C  C191  1  0.44949104  0.49908383  0.76623598  1
  C  C192  1  0.49450020  0.57510973  0.50588991  1
  C  C193  1  0.34235900  0.52350683  0.53455286  1
  C  C194  1  0.35242154  0.50689240  0.49998670  1
  C  C195  1  0.33846877  0.49539460  0.45284932  1
  C  C196  1  0.35166298  0.47805260  0.41867465  1
  C  C197  1  0.33953317  0.46683218  0.37354675  1
  C  C198  1  0.31389682  0.47305405  0.36158806  1
  C  C199  1  0.30016790  0.48968192  0.39566559  1
  C  C200  1  0.31245998  0.50098405  0.44075128  1
  C  C201  1  0.31611771  0.44803294  0.27901888  1
  C  C202  1  0.29841443  0.44101624  0.23275246  1
  C  C203  1  0.27990161  0.42128678  0.23460987  1
  C  C204  1  0.26137138  0.41646639  0.19369493  1
  C  C205  1  0.26141786  0.43044889  0.15085033  1
  C  C206  1  0.28045621  0.44976131  0.14930832  1
  C  C207  1  0.29881945  0.45540867  0.19046537  1
  C  C208  1  0.31861754  0.47647524  0.19139111  1
  C  C209  1  0.28083117  0.40513390  0.27796894  1
  C  C210  1  0.24044124  0.42445475  0.10981970  1
  C  C211  1  0.24077216  0.39642853  0.19555474  1
  C  C212  1  0.19533681  0.39010125  0.20993090  1
  C  C213  1  0.19982828  0.36487880  0.19834975  1
  C  C214  1  0.17899209  0.34780718  0.19411667  1
  C  C215  1  0.15274213  0.35509336  0.20254589  1
  C  C216  1  0.14882911  0.38093603  0.21591205  1
  C  C217  1  0.16975550  0.39809628  0.21977992  1
  C  C218  1  0.13180326  0.33653930  0.19813835  1
  C  C219  1  0.13674364  0.31166392  0.18502601  1
  C  C220  1  0.27957383  0.46491669  0.10426152  1
  C  C221  1  0.29570824  0.46689540  0.01962360  1
  C  C222  1  0.28177553  0.48860206  0.01725681  1
  C  C223  1  0.28727041  0.50358439  0.97848660  1
  C  C224  1  0.30643235  0.49712677  0.94090293  1
  C  C225  1  0.31953227  0.47478253  0.94284780  1
  C  C226  1  0.31382557  0.45950790  0.98132953  1
  C  C227  1  0.31213472  0.51370980  0.90074356  1
  C  C228  1  0.32997128  0.50886400  0.86468756  1
  C  C229  1  0.50629064  0.36822081  0.83313424  1
  C  C230  1  0.49357275  0.35265837  0.86034538  1
  C  C231  1  0.50526295  0.34276167  0.90581749  1
  C  C232  1  0.49054776  0.32598262  0.93262962  1
  C  C233  1  0.50088178  0.31666551  0.97604521  1
  C  C234  1  0.52618274  0.32423127  0.99377888  1
  C  C235  1  0.54141535  0.34023638  0.96681366  1
  C  C236  1  0.53092970  0.34963008  0.92347889  1
  C  C237  1  0.52075257  0.30189867  0.06861098  1
  C  C238  1  0.53669771  0.29710910  0.11535526  1
  C  C239  1  0.55467858  0.27769781  0.11011395  1
  C  C240  1  0.57132509  0.27463845  0.15255471  1
  C  C241  1  0.57021601  0.29032195  0.19980984  1
  C  C242  1  0.55168497  0.30926961  0.20464700  1
  C  C243  1  0.53506296  0.31296877  0.16236161  1
  C  C244  1  0.51581793  0.33347793  0.16519175  1
  C  C245  1  0.55504667  0.25997000  0.06133042  1
  C  C246  1  0.58955637  0.28641111  0.24207289  1
  C  C247  1  0.59130504  0.25488625  0.14742096  1
  C  C248  1  0.63721780  0.24988882  0.13777935  1
  C  C249  1  0.63250094  0.22459991  0.14060628  1
  C  C250  1  0.65339377  0.20889547  0.14251466  1
  C  C251  1  0.67977379  0.21786783  0.14052340  1
  C  C252  1  0.68379626  0.24354684  0.13599352  1
  C  C253  1  0.66292585  0.25931087  0.13439319  1
  C  C254  1  0.70195710  0.20219990  0.14247161  1
  C  C255  1  0.70130069  0.17689430  0.14634721  1
  C  C256  1  0.55130473  0.32617419  0.25473027  1
  C  C257  1  0.53196464  0.33075604  0.33791595  1
  C  C258  1  0.54633735  0.35306918  0.34949411  1
  C  C259  1  0.53975148  0.36925550  0.39238213  1
  C  C260  1  0.51902363  0.36346800  0.42502289  1
  C  C261  1  0.50549629  0.34051563  0.41390069  1
  C  C262  1  0.51223920  0.32407261  0.37118370  1
  C  C263  1  0.51239318  0.38147793  0.46961668  1
  C  C264  1  0.49328555  0.37815525  0.50236103  1
  C  C265  1  0.51270341  0.65988398  0.76346854  1
  C  C266  1  0.52456804  0.67590650  0.79866480  1
  C  C267  1  0.51123179  0.68711893  0.84551088  1
  C  C268  1  0.52488062  0.70482583  0.88042490  1
  C  C269  1  0.51298554  0.71559760  0.92510355  1
  C  C270  1  0.48713957  0.70857438  0.93593042  1
  C  C271  1  0.47300840  0.69154600  0.90111468  1
  C  C272  1  0.48507255  0.68065702  0.85657897  1
  C  C273  1  0.48970832  0.73359754  0.01889078  1
  C  C274  1  0.47216512  0.73996924  0.06454547  1
  C  C275  1  0.45434998  0.75930220  0.06253189  1
  C  C276  1  0.43627883  0.76374060  0.10323491  1
  C  C277  1  0.43582572  0.74955401  0.14578472  1
  C  C278  1  0.45423796  0.73071407  0.14767126  1
  C  C279  1  0.47225609  0.72560658  0.10689723  1
  C  C280  1  0.49146480  0.70513852  0.10643055  1
  C  C281  1  0.45561819  0.77552571  0.01928663  1
  C  C282  1  0.41508300  0.75484420  0.18615703  1
  C  C283  1  0.41642931  0.78338297  0.10111491  1
  C  C284  1  0.37094552  0.78798211  0.08530251  1
  C  C285  1  0.37538708  0.81348978  0.09745501  1
  C  C286  1  0.35439214  0.82927273  0.10101227  1
  C  C287  1  0.32821284  0.82014151  0.09140945  1
  C  C288  1  0.32453924  0.79419974  0.07736517  1
  C  C289  1  0.34549540  0.77835725  0.07419643  1
  C  C290  1  0.30592463  0.83589355  0.09505823  1
  C  C291  1  0.30629039  0.86138649  0.10840370  1
  C  C292  1  0.45300798  0.71545404  0.19261673  1
  C  C293  1  0.46937383  0.71376133  0.27776948  1
  C  C294  1  0.45485778  0.69160677  0.27969423  1
  C  C295  1  0.46009934  0.67675598  0.31857498  1
  C  C296  1  0.47957470  0.68378559  0.35674493  1
  C  C297  1  0.49317971  0.70660617  0.35534442  1
  C  C298  1  0.48779538  0.72170527  0.31666883  1
  C  C299  1  0.48498530  0.66726425  0.39687430  1
  C  C300  1  0.50284632  0.67227638  0.43397955  1
  C  C301  1  0.66728612  0.51358290  0.72879453  1
  C  C302  1  0.68620708  0.50521917  0.75669714  1
  C  C303  1  0.69763548  0.51902967  0.80435758  1
  C  C304  1  0.71816725  0.50874143  0.83101860  1
  C  C305  1  0.72911574  0.52113818  0.87627206  1
  C  C306  1  0.71946226  0.54407121  0.89605427  1
  C  C307  1  0.69969925  0.55495868  0.86938659  1
  C  C308  1  0.68863741  0.54237223  0.82422932  1
  C  C309  1  0.74673651  0.54401518  0.97237962  1
  C  C310  1  0.75281087  0.56059972  0.02153260  1
  C  C311  1  0.77308882  0.57874717  0.02073373  1
  C  C312  1  0.77742838  0.59542363  0.06579977  1
  C  C313  1  0.76182558  0.59496641  0.11058957  1
  C  C314  1  0.74215275  0.57614883  0.11117945  1
  C  C315  1  0.73735673  0.55917111  0.06642903  1
  C  C316  1  0.71634478  0.53919586  0.06515706  1
  C  C317  1  0.79032956  0.58007750  0.97414210  1
  C  C318  1  0.76632836  0.61517685  0.15453265  1
  C  C319  1  0.79728981  0.61594095  0.06401272  1
  C  C320  1  0.79922430  0.65850223  0.05508643  1
  C  C321  1  0.82654128  0.65702889  0.06013673  1
  C  C322  1  0.84202323  0.67844652  0.06534411  1
  C  C323  1  0.83071262  0.70194424  0.06443308  1
  C  C324  1  0.80296444  0.70264970  0.05737025  1
  C  C325  1  0.78739662  0.68119882  0.05245471  1
  C  C326  1  0.84649809  0.72425497  0.07006910  1
  C  C327  1  0.87362224  0.72598233  0.07721752  1
  C  C328  1  0.72541454  0.57594892  0.15884867  1
  C  C329  1  0.72407407  0.56112506  0.24181358  1
  C  C330  1  0.69942289  0.57150317  0.25048721  1
  C  C331  1  0.68412562  0.56490601  0.29122527  1
  C  C332  1  0.69309391  0.54811424  0.32461128  1
  C  C333  1  0.71839148  0.53869335  0.31652294  1
  C  C334  1  0.73394313  0.54549509  0.27605085  1
  C  C335  1  0.67592851  0.54111303  0.36674861  1
  C  C336  1  0.68247909  0.52553046  0.39978867  1
  C  C337  1  0.03312257  0.07152666  0.13923373  1
  C  C338  1  0.04256942  0.09279211  0.14278291  1
  C  C339  1  0.05175298  0.11791602  0.14706613  1
  C  C340  1  0.03434661  0.13781950  0.14879708  1
  C  C341  1  0.04325219  0.16235425  0.15336518  1
  C  C342  1  0.07040613  0.16893182  0.15654342  1
  C  C343  1  0.08777964  0.14898372  0.15466397  1
  C  C344  1  0.07871751  0.12447397  0.15007003  1
  C  C345  1  0.08017089  0.19510707  0.16157862  1
  C  C346  1  0.10735417  0.20156758  0.16475499  1
  C  C347  1  0.11638756  0.22603416  0.16974148  1
  C  C348  1  0.09904410  0.24604281  0.17226765  1
  C  C349  1  0.07202528  0.23959200  0.16842764  1
  C  C350  1  0.06287964  0.21512067  0.16341471  1
  C  C351  1  0.10828692  0.27111407  0.17804932  1
  C  C352  1  0.11842766  0.29209547  0.18287427  1
  C  C353  1  0.93933160  0.05817997  0.13845400  1
  C  C354  1  0.91789225  0.06786944  0.13812266  1
  C  C355  1  0.89346484  0.07951478  0.13808133  1
  C  C356  1  0.86943111  0.06577935  0.13524560  1
  C  C357  1  0.84547850  0.07723944  0.13649336  1
  C  C358  1  0.84386416  0.10335012  0.14032976  1
  C  C359  1  0.86801680  0.11709372  0.14230194  1
  C  C360  1  0.89190855  0.10554144  0.14102039  1
  C  C361  1  0.81824916  0.11560082  0.14204150  1
  C  C362  1  0.81669079  0.14170352  0.14591421  1
  C  C363  1  0.79280012  0.15322992  0.14741996  1
  C  C364  1  0.76853393  0.13966441  0.14505091  1
  C  C365  1  0.77012950  0.11359752  0.14155587  1
  C  C366  1  0.79403863  0.10198626  0.14004937  1
  C  C367  1  0.74425765  0.15168769  0.14597012  1
  C  C368  1  0.72404384  0.16357268  0.14617497  1
  C  C369  1  0.06819988  0.98023843  0.12161715  1
  C  C370  1  0.08963096  0.97053542  0.12201354  1
  C  C371  1  0.11406991  0.95891220  0.12217393  1
  C  C372  1  0.11565548  0.93289331  0.11937331  1
  C  C373  1  0.13956220  0.92136509  0.11822330  1
  C  C374  1  0.16370607  0.93512310  0.12021004  1
  C  C375  1  0.16206078  0.96122883  0.12389298  1
  C  C376  1  0.13809372  0.97266544  0.12501489  1
  C  C377  1  0.18933178  0.92288188  0.11862492  1
  C  C378  1  0.21355061  0.93648200  0.12057993  1
  C  C379  1  0.23746369  0.92486088  0.11898148  1
  C  C380  1  0.23905884  0.89878330  0.11521327  1
  C  C381  1  0.21478241  0.88525276  0.11342840  1
  C  C382  1  0.19089313  0.89678624  0.11500523  1
  C  C383  1  0.26329731  0.88666138  0.11322446  1
  C  C384  1  0.28349462  0.87470270  0.11088428  1
  C  C385  1  0.97437175  0.96721121  0.12101679  1
  C  C386  1  0.96502654  0.94591490  0.11757234  1
  C  C387  1  0.95589762  0.92082204  0.11361316  1
  C  C388  1  0.97314502  0.90112698  0.11751165  1
  C  C389  1  0.96425427  0.87663512  0.11325369  1
  C  C390  1  0.93731982  0.87001861  0.10465466  1
  C  C391  1  0.92010995  0.88972376  0.10065769  1
  C  C392  1  0.92916170  0.91418159  0.10501595  1
  C  C393  1  0.92748744  0.84398259  0.10003589  1
  C  C394  1  0.90045288  0.83774547  0.09144789  1
  C  C395  1  0.89121900  0.81347172  0.08719740  1
  C  C396  1  0.90823680  0.79356186  0.09117059  1
  C  C397  1  0.93517945  0.79975422  0.09965734  1
  C  C398  1  0.94450198  0.82408002  0.10394456  1
  C  C399  1  0.89844700  0.76888364  0.08681394  1
  C  C400  1  0.88679004  0.74864846  0.08229725  1
  N  N401  1  0.39914209  0.50526452  0.80711641  1
  N  N402  1  0.37839554  0.51129093  0.80874836  1
  N  N403  1  0.50920612  0.43147622  0.78672132  1
  N  N404  1  0.50488855  0.41149315  0.79045082  1
  N  N405  1  0.50980490  0.44561779  0.53792019  1
  N  N406  1  0.50149306  0.42655424  0.54165287  1
  N  N407  1  0.49798485  0.60699685  0.47665808  1
  N  N408  1  0.50168709  0.62700332  0.47230198  1
  N  N409  1  0.49774581  0.59186275  0.72526645  1
  N  N410  1  0.50550754  0.61128670  0.72378027  1
  N  N411  1  0.61113037  0.53372293  0.45572247  1
  N  N412  1  0.63210759  0.52971294  0.44722835  1
  N  N413  1  0.42059935  0.51849817  0.56059246  1
  N  N414  1  0.40035660  0.52517383  0.56993547  1
  N  N415  1  0.58729438  0.51995204  0.70436660  1
  N  N416  1  0.60894823  0.51686380  0.70309334  1
  O  O417  1  0.54325126  0.52260673  0.75011237  1
  O  O418  1  0.54253730  0.52575078  0.66285327  1
  O  O419  1  0.51442895  0.48817525  0.50515489  1
  O  O420  1  0.54390561  0.52969761  0.46395450  1
  O  O421  1  0.51700679  0.48701282  0.59288017  1
  O  O422  1  0.56964988  0.54823190  0.53430122  1
  O  O423  1  0.51168410  0.48156279  0.79061215  1
  O  O424  1  0.51142759  0.45916245  0.71038657  1
  O  O425  1  0.46428355  0.51596699  0.51359415  1
  O  O426  1  0.46573148  0.51219915  0.60060624  1
  O  O427  1  0.49275592  0.54981444  0.75820671  1
  O  O428  1  0.49057402  0.55091530  0.67036713  1
  O  O429  1  0.46368694  0.50859765  0.79964749  1
  O  O430  1  0.43871600  0.49007575  0.72814829  1
  O  O431  1  0.49588889  0.55677720  0.47313144  1
  O  O432  1  0.49626800  0.57929189  0.55322802  1
  O  O433  1  0.51564812  0.53827667  0.56998364  1
  O  O434  1  0.49201373  0.50010084  0.69357653  1
  O  O435  1  0.30106303  0.46323932  0.31756349  1
  O  O436  1  0.29187940  0.45233743  0.05849792  1
  O  O437  1  0.21563034  0.40702233  0.21133006  1
  O  O438  1  0.53730885  0.31633702  0.03661829  1
  O  O439  1  0.53690072  0.31488919  0.29487154  1
  O  O440  1  0.61712913  0.26589084  0.13864797  1
  O  O441  1  0.47444318  0.71791117  0.97937683  1
  O  O442  1  0.46585758  0.72827058  0.23887430  1
  O  O443  1  0.39103973  0.77198026  0.08431297  1
  O  O444  1  0.72884074  0.55683096  0.94083511  1
  O  O445  1  0.73935789  0.56612434  0.20117047  1
  O  O446  1  0.78344481  0.63789918  0.05312939  1
