# generated using pymatgen
data_ZnH57C111O8
_symmetry_space_group_name_H-M   'P 1'
_cell_length_a   71.42727496
_cell_length_b   72.80508936
_cell_length_c   35.98369357
_cell_angle_alpha   90.88761029
_cell_angle_beta   91.38730117
_cell_angle_gamma   122.93145754
_symmetry_Int_Tables_number   1
_chemical_formula_structural   ZnH57C111O8
_chemical_formula_sum   'Zn2 H114 C222 O16'
_cell_volume   156920.33826238
_cell_formula_units_Z   2
loop_
 _symmetry_equiv_pos_site_id
 _symmetry_equiv_pos_as_xyz
  1  'x, y, z'
loop_
 _atom_site_type_symbol
 _atom_site_label
 _atom_site_symmetry_multiplicity
 _atom_site_fract_x
 _atom_site_fract_y
 _atom_site_fract_z
 _atom_site_occupancy
  Zn  Zn0  1  0.70752962  0.37623844  0.56704799  1
  Zn  Zn1  1  0.70684915  0.36294010  0.47165412  1
  H  H2  1  0.91328239  0.87616542  0.97912779  1
  H  H3  1  0.90994053  0.88283279  0.06342986  1
  H  H4  1  0.93526790  0.91724721  0.09271720  1
  H  H5  1  0.96662545  0.95555336  0.09294655  1
  H  H6  1  0.97347485  0.94923521  0.97564338  1
  H  H7  1  0.94199929  0.91066157  0.97499659  1
  H  H8  1  0.00158213  0.98634624  0.08723320  1
  H  H9  1  0.98021394  0.99034307  0.07306191  1
  H  H10  1  0.97746560  0.02941548  0.02058905  1
  H  H11  1  0.97578939  0.01862763  0.06467866  1
  H  H12  1  0.97112437  0.00247258  0.02392903  1
  H  H13  1  0.02968379  0.99063066  0.07352947  1
  H  H14  1  0.04832769  0.01403057  0.10177370  1
  H  H15  1  0.05714432  0.00863514  0.05974014  1
  H  H16  1  0.05581181  0.08471605  0.99233558  1
  H  H17  1  0.07135201  0.07278893  0.98309901  1
  H  H18  1  0.07524875  0.08684366  0.02592607  1
  H  H19  1  0.08655785  0.06608016  0.04610288  1
  H  H20  1  0.07955299  0.03905929  0.05406949  1
  H  H21  1  0.11461018  0.06229113  0.05337441  1
  H  H22  1  0.15409524  0.07801147  0.04442009  1
  H  H23  1  0.14081074  0.06533790  0.92578935  1
  H  H24  1  0.10077522  0.04967827  0.93526913  1
  H  H25  1  0.17929968  0.08194716  0.94978067  1
  H  H26  1  0.18773730  0.09151640  0.03490850  1
  H  H27  1  0.02471698  0.06935208  0.97789355  1
  H  H28  1  0.99732780  0.05228025  0.99310272  1
  H  H29  1  0.00434035  0.08121716  0.96004091  1
  H  H30  1  0.98421894  0.09899626  0.94543571  1
  H  H31  1  0.99083428  0.11941552  0.06130013  1
  H  H32  1  0.01052544  0.10103019  0.07551980  1
  H  H33  1  0.96969867  0.12141089  0.96363216  1
  H  H34  1  0.97301361  0.13226908  0.04821347  1
  H  H35  1  0.87200055  0.30954957  0.08173270  1
  H  H36  1  0.91322010  0.27849538  0.08347959  1
  H  H37  1  0.93368442  0.25940153  0.07727246  1
  H  H38  1  0.91872368  0.25102318  0.95865606  1
  H  H39  1  0.89894709  0.27063548  0.96480658  1
  H  H40  1  0.87534621  0.30865072  0.96311723  1
  H  H41  1  0.86717376  0.33272320  0.84579092  1
  H  H42  1  0.85409226  0.34134529  0.78882582  1
  H  H43  1  0.82059007  0.36356564  0.85693681  1
  H  H44  1  0.82767294  0.34817849  0.91139746  1
  H  H45  1  0.84601349  0.34018369  0.01574837  1
  H  H46  1  0.82527680  0.34971825  0.12797902  1
  H  H47  1  0.82205153  0.36638922  0.18626495  1
  H  H48  1  0.85451524  0.34076772  0.24847877  1
  H  H49  1  0.86355584  0.32989722  0.18960081  1
  H  H50  1  0.48093446  0.19159721  0.94348704  1
  H  H51  1  0.40483016  0.15818886  0.94428156  1
  H  H52  1  0.36328390  0.13933915  0.94862905  1
  H  H53  1  0.36934140  0.13119512  0.06638460  1
  H  H54  1  0.41066199  0.15055373  0.06173478  1
  H  H55  1  0.47728679  0.19094616  0.06215736  1
  H  H56  1  0.51061131  0.21318303  0.17463528  1
  H  H57  1  0.53221129  0.22120438  0.23529095  1
  H  H58  1  0.59220514  0.24184409  0.17541830  1
  H  H59  1  0.56983122  0.23066954  0.11550717  1
  H  H60  1  0.54126011  0.22305181  0.01227271  1
  H  H61  1  0.57373420  0.23171851  0.90329360  1
  H  H62  1  0.59482013  0.24765092  0.84609471  1
  H  H63  1  0.53213971  0.22253089  0.78388381  1
  H  H64  1  0.51207680  0.21115178  0.84289163  1
  H  H65  1  0.70520138  0.58926394  0.07243143  1
  H  H66  1  0.73458320  0.66378692  0.06852796  1
  H  H67  1  0.75383577  0.70417923  0.06400027  1
  H  H68  1  0.76239421  0.69835290  0.94690550  1
  H  H69  1  0.74250449  0.65788372  0.95154101  1
  H  H70  1  0.70521593  0.59184382  0.95358694  1
  H  H71  1  0.68134003  0.55785286  0.83510363  1
  H  H72  1  0.67386161  0.53654169  0.77654793  1
  H  H73  1  0.65770594  0.48002685  0.83898467  1
  H  H74  1  0.66692139  0.50198234  0.89753122  1
  H  H75  1  0.67500877  0.52966819  0.00555373  1
  H  H76  1  0.66579833  0.49776389  0.11710548  1
  H  H77  1  0.65622452  0.47759943  0.17560145  1
  H  H78  1  0.67536920  0.53660687  0.23743788  1
  H  H79  1  0.68395446  0.55653798  0.17912392  1
  H  H80  1  0.78306736  0.36564588  0.76869747  1
  H  H81  1  0.82353938  0.35874239  0.69028613  1
  H  H82  1  0.84272327  0.35259738  0.74127499  1
  H  H83  1  0.79948380  0.35634317  0.81891564  1
  H  H84  1  0.62837128  0.27071784  0.28376654  1
  H  H85  1  0.57765674  0.28543279  0.29618562  1
  H  H86  1  0.55333248  0.25604754  0.24922884  1
  H  H87  1  0.60394425  0.24128108  0.23713732  1
  H  H88  1  0.58082812  0.27388600  0.70230606  1
  H  H89  1  0.63260084  0.26905516  0.75630544  1
  H  H90  1  0.60474284  0.24153270  0.79773618  1
  H  H91  1  0.55394506  0.24915712  0.74777492  1
  H  H92  1  0.71294320  0.48545391  0.26454447  1
  H  H93  1  0.65354023  0.46726909  0.32253922  1
  H  H94  1  0.64384121  0.48570813  0.27623470  1
  H  H95  1  0.70298942  0.50340713  0.21735646  1
  H  H96  1  0.70504686  0.48107194  0.74411999  1
  H  H97  1  0.64054543  0.46019473  0.69550195  1
  H  H98  1  0.63628369  0.48242760  0.74242399  1
  H  H99  1  0.70044693  0.50274465  0.79204792  1
  H  H100  1  0.77390065  0.35087069  0.26623492  1
  H  H101  1  0.81946764  0.35213483  0.34850116  1
  H  H102  1  0.84296563  0.35274249  0.29896410  1
  H  H103  1  0.79530146  0.34816817  0.21678352  1
  H  H104  1  0.90639736  0.18262206  0.01295795  1
  H  H105  1  0.97728746  0.23183670  0.01637621  1
  H  H106  1  0.96947083  0.26109371  0.01970748  1
  H  H107  1  0.89880844  0.21221058  0.01402900  1
  H  H108  1  0.28692153  0.08344824  0.00657026  1
  H  H109  1  0.31126650  0.15227572  0.00708635  1
  H  H110  1  0.35004031  0.16121222  0.00719645  1
  H  H111  1  0.32564253  0.09260749  0.00876119  1
  H  H112  1  0.83654273  0.75528966  0.00508515  1
  H  H113  1  0.79384215  0.78025233  0.00410685  1
  H  H114  1  0.76070512  0.74260958  0.00525676  1
  H  H115  1  0.80312720  0.71754031  0.00437720  1
  C  C116  1  0.90647219  0.87208232  0.00698102  1
  C  C117  1  0.91670528  0.88786074  0.03591141  1
  C  C118  1  0.93549345  0.91038459  0.03399263  1
  C  C119  1  0.94339613  0.92408078  0.06671008  1
  C  C120  1  0.96108540  0.94588400  0.06687683  1
  C  C121  1  0.97180480  0.95513683  0.03395210  1
  C  C122  1  0.96486272  0.94207261  1.00122386  1
  C  C123  1  0.94704347  0.92023299  1.00109698  1
  C  C124  1  0.99544021  0.99154945  0.06389908  1
  C  C125  1  0.01291812  0.01423018  0.05173726  1
  C  C126  1  0.03571327  0.02117235  0.05275723  1
  C  C127  1  0.05152087  0.04109857  0.03635611  1
  C  C128  1  0.04476291  0.05452691  0.02090953  1
  C  C129  1  0.02199603  0.04754041  0.02059489  1
  C  C130  1  0.00593269  0.02745948  0.03620173  1
  C  C131  1  0.98150758  0.01918248  0.03627544  1
  C  C132  1  0.04305288  0.00798965  0.07266099  1
  C  C133  1  0.06248726  0.07568134  0.00470434  1
  C  C134  1  0.07589511  0.04884688  0.03598627  1
  C  C135  1  0.10501952  0.05556385  0.99477743  1
  C  C136  1  0.12021631  0.06320894  0.02515692  1
  C  C137  1  0.14277512  0.07185618  0.01997376  1
  C  C138  1  0.15122342  0.07291339  0.98422195  1
  C  C139  1  0.13521575  0.06476774  0.95391607  1
  C  C140  1  0.11265360  0.05610206  0.95905329  1
  C  C141  1  0.17457957  0.08147755  0.97852410  1
  C  C142  1  0.19147079  0.08943701  0.00629839  1
  C  C143  1  0.01496825  0.06159014  0.00263785  1
  C  C144  1  0.00781464  0.08915500  0.01915914  1
  C  C145  1  0.00079547  0.08903341  0.98242712  1
  C  C146  1  0.98987130  0.09952404  0.97409393  1
  C  C147  1  0.98591456  0.11098747  1.00184977  1
  C  C148  1  0.99363390  0.11109954  0.03877328  1
  C  C149  1  0.00467688  0.10067135  0.04706167  1
  C  C150  1  0.97503698  0.12220858  0.99260188  1
  C  C151  1  0.97066694  0.13377005  0.01840573  1
  C  C152  1  0.86840160  0.31382884  0.05477811  1
  C  C153  1  0.87387997  0.30719150  0.02275936  1
  C  C154  1  0.88368011  0.29498188  0.02723441  1
  C  C155  1  0.89302589  0.28510335  0.02888316  1
  C  C156  1  0.90460019  0.27479522  0.02478011  1
  C  C157  1  0.91494247  0.27249188  0.05668768  1
  C  C158  1  0.92616665  0.26219188  0.05314021  1
  C  C159  1  0.92661400  0.25388369  0.01788028  1
  C  C160  1  0.91721669  0.25698497  0.98562543  1
  C  C161  1  0.90651785  0.26780173  0.98885592  1
  C  C162  1  0.87043390  0.31337253  0.98811158  1
  C  C163  1  0.86069416  0.32552613  0.98511229  1
  C  C164  1  0.85754947  0.33058373  0.94847950  1
  C  C165  1  0.85435341  0.33457255  0.91685884  1
  C  C166  1  0.84825457  0.33969647  0.88282662  1
  C  C167  1  0.85572887  0.33822863  0.84753407  1
  C  C168  1  0.84828160  0.34317517  0.81549409  1
  C  C169  1  0.83346688  0.35041055  0.81735376  1
  C  C170  1  0.82799926  0.35402030  0.85305447  1
  C  C171  1  0.83383926  0.34734173  0.88436996  1
  C  C172  1  0.85428170  0.33132405  0.01771423  1
  C  C173  1  0.85840419  0.32573321  0.05282315  1
  C  C174  1  0.85332431  0.33090823  0.08773454  1
  C  C175  1  0.84974275  0.33450417  0.11922201  1
  C  C176  1  0.84514325  0.33930472  0.15464066  1
  C  C177  1  0.83205511  0.34845025  0.15460326  1
  C  C178  1  0.82783168  0.35532504  0.18723063  1
  C  C179  1  0.83289143  0.34966443  0.22170226  1
  C  C180  1  0.84763153  0.34232851  0.22226350  1
  C  C181  1  0.85329785  0.33680428  0.18923137  1
  C  C182  1  0.48915975  0.19594290  0.97100210  1
  C  C183  1  0.47633285  0.18926439  0.00223126  1
  C  C184  1  0.45292364  0.17660006  -0.00157887  1
  C  C185  1  0.43261065  0.16609371  -0.00107055  1
  C  C186  1  0.40955782  0.15492372  0.00258574  1
  C  C187  1  0.39644905  0.15192740  0.97032263  1
  C  C188  1  0.37389071  0.14208984  0.97303907  1
  C  C189  1  0.36426449  0.13506185  0.00791865  1
  C  C190  1  0.37710162  0.13705949  0.03981239  1
  C  C191  1  0.39982873  0.14740681  0.03737205  1
  C  C192  1  0.48700758  0.19576233  0.03720701  1
  C  C193  1  0.51021784  0.20850831  0.04072968  1
  C  C194  1  0.51940298  0.21420651  0.07718958  1
  C  C195  1  0.52775647  0.21831496  0.10858865  1
  C  C196  1  0.53944316  0.22239882  0.14243372  1
  C  C197  1  0.52824789  0.21888696  0.17592707  1
  C  C198  1  0.54032335  0.22411670  0.20888104  1
  C  C199  1  0.56363133  0.23365875  0.20828005  1
  C  C200  1  0.57427066  0.23466746  0.17502442  1
  C  C201  1  0.56220742  0.22912107  0.14212494  1
  C  C202  1  0.52314350  0.21408376  0.00940648  1
  C  C203  1  0.51244141  0.20799485  0.97437012  1
  C  C204  1  0.52375982  0.21321246  0.94097621  1
  C  C205  1  0.53245886  0.21712111  0.91094625  1
  C  C206  1  0.54216483  0.22178096  0.87634032  1
  C  C207  1  0.56529934  0.23040895  0.87677832  1
  C  C208  1  0.57668508  0.23801267  0.84479159  1
  C  C209  1  0.56483529  0.23563976  0.81112007  1
  C  C210  1  0.54136551  0.22542038  0.81013015  1
  C  C211  1  0.53007609  0.21864690  0.84259061  1
  C  C212  1  0.70079144  0.58072722  0.04536644  1
  C  C213  1  0.70688501  0.59295699  0.01338062  1
  C  C214  1  0.71855571  0.61605755  0.01570877  1
  C  C215  1  0.72795872  0.63594322  0.01454925  1
  C  C216  1  0.73828193  0.65858589  0.01081029  1
  C  C217  1  0.74077368  0.67173405  0.04218958  1
  C  C218  1  0.75176090  0.69410361  0.03961502  1
  C  C219  1  0.76147471  0.70384178  0.00601960  1
  C  C220  1  0.75688227  0.69072007  0.97362618  1
  C  C221  1  0.74542723  0.66831818  0.97591586  1
  C  C222  1  0.70072739  0.58219676  0.97850864  1
  C  C223  1  0.68896250  0.55943804  0.97499926  1
  C  C224  1  0.68374141  0.55032880  0.93799137  1
  C  C225  1  0.67970407  0.54264216  0.90604627  1
  C  C226  1  0.67502679  0.53159771  0.87093170  1
  C  C227  1  0.67646595  0.54084153  0.83598083  1
  C  C228  1  0.67255279  0.52882396  0.80291491  1
  C  C229  1  0.66742024  0.50726306  0.80343873  1
  C  C230  1  0.66397825  0.49738626  0.83808657  1
  C  C231  1  0.66818386  0.50934478  0.87079981  1
  C  C232  1  0.68357891  0.54741131  0.00778453  1
  C  C233  1  0.68915453  0.55787919  0.04334427  1
  C  C234  1  0.68400830  0.54714474  0.07792700  1
  C  C235  1  0.68013557  0.53883250  0.10851821  1
  C  C236  1  0.67571687  0.52869035  0.14338219  1
  C  C237  1  0.66777604  0.50616897  0.14363676  1
  C  C238  1  0.66369759  0.49522912  0.17642643  1
  C  C239  1  0.66907286  0.50662281  0.21097786  1
  C  C240  1  0.67417063  0.52819433  0.21129700  1
  C  C241  1  0.67814846  0.53924505  0.17827528  1
  C  C242  1  0.68759358  0.40766345  0.59319317  1
  C  C243  1  0.66899255  0.35407373  0.42463601  1
  C  C244  1  0.71024005  0.40942083  0.45100243  1
  C  C245  1  0.72959990  0.35339664  0.43733091  1
  C  C246  1  0.67750222  0.34095539  0.60129180  1
  C  C247  1  0.74027695  0.37220829  0.59401233  1
  C  C248  1  0.79605038  0.36255875  0.76266023  1
  C  C249  1  0.80155473  0.36265008  0.72502124  1
  C  C250  1  0.81870643  0.35874737  0.71880436  1
  C  C251  1  0.82938667  0.35505212  0.74771377  1
  C  C252  1  0.82344437  0.35472087  0.78501960  1
  C  C253  1  0.80617126  0.35825082  0.79139334  1
  C  C254  1  0.79007646  0.36619866  0.69641824  1
  C  C255  1  0.77936389  0.36886469  0.67245827  1
  C  C256  1  0.76675510  0.37089054  0.64643719  1
  C  C257  1  0.75505020  0.37211869  0.62265891  1
  C  C258  1  0.61192135  0.26736372  0.27604342  1
  C  C259  1  0.60471261  0.28020849  0.29280922  1
  C  C260  1  0.58300784  0.27540456  0.28348463  1
  C  C261  1  0.56934374  0.25882991  0.25835597  1
  C  C262  1  0.57713664  0.24692193  0.24061823  1
  C  C263  1  0.59849875  0.25122912  0.24976504  1
  C  C264  1  0.61804818  0.29728777  0.31874291  1
  C  C265  1  0.62972747  0.31173820  0.34206397  1
  C  C266  1  0.64283997  0.32650492  0.36887642  1
  C  C267  1  0.65498473  0.33953443  0.39358162  1
  C  C268  1  0.58610747  0.26724952  0.72414332  1
  C  C269  1  0.60884265  0.27372195  0.72650925  1
  C  C270  1  0.61530288  0.26449543  0.75449421  1
  C  C271  1  0.60019056  0.25033866  0.77934603  1
  C  C272  1  0.57838347  0.24601280  0.77903005  1
  C  C273  1  0.57111693  0.25343148  0.74941986  1
  C  C274  1  0.62428034  0.28830631  0.70136381  1
  C  C275  1  0.63726953  0.30095582  0.67888413  1
  C  C276  1  0.65094415  0.31456822  0.65336191  1
  C  C277  1  0.66331352  0.32688848  0.63013324  1
  C  C278  1  0.69774107  0.48545856  0.26678165  1
  C  C279  1  0.68393095  0.47486955  0.29719067  1
  C  C280  1  0.66445266  0.47543947  0.29952386  1
  C  C281  1  0.65910196  0.48591416  0.27344000  1
  C  C282  1  0.67297837  0.49617299  0.24351138  1
  C  C283  1  0.69217604  0.49542290  0.24047483  1
  C  C284  1  0.68988733  0.46460041  0.32329194  1
  C  C285  1  0.69601135  0.45613324  0.34530174  1
  C  C286  1  0.70424747  0.44792118  0.36876466  1
  C  C287  1  0.70604275  0.43575038  0.39204243  1
  C  C288  1  0.68986476  0.48123275  0.74385000  1
  C  C289  1  0.67313787  0.46862707  0.71568402  1
  C  C290  1  0.65390088  0.46975226  0.71644315  1
  C  C291  1  0.65152447  0.48238410  0.74304339  1
  C  C292  1  0.66827557  0.49454854  0.77066989  1
  C  C293  1  0.68730196  0.49338021  0.77076434  1
  C  C294  1  0.67594925  0.45591397  0.68902725  1
  C  C295  1  0.67885657  0.44493603  0.66660742  1
  C  C296  1  0.68212853  0.43275982  0.64239403  1
  C  C297  1  0.68507775  0.42166998  0.62038002  1
  C  C298  1  0.78893334  0.35101237  0.27328462  1
  C  C299  1  0.79449777  0.35093713  0.31138383  1
  C  C300  1  0.81447665  0.35163679  0.31943693  1
  C  C301  1  0.82752864  0.35169850  0.29152993  1
  C  C302  1  0.82134127  0.35111513  0.25376682  1
  C  C303  1  0.80161335  0.35060873  0.24542301  1
  C  C304  1  0.78048518  0.35019745  0.33898554  1
  C  C305  1  0.76804706  0.34968934  0.36233731  1
  C  C306  1  0.75469332  0.35011308  0.38764391  1
  C  C307  1  0.74303613  0.35123256  0.41043239  1
  C  C308  1  0.92008420  0.19978452  0.01348907  1
  C  C309  1  0.94242676  0.20513358  0.01365061  1
  C  C310  1  0.96013689  0.22765612  0.01592350  1
  C  C311  1  0.95584375  0.24391890  0.01783492  1
  C  C312  1  0.96307441  0.14695728  0.00949080  1
  C  C313  1  0.91582040  0.21603036  0.01399876  1
  C  C314  1  0.94697289  0.18872689  0.01161361  1
  C  C315  1  0.95169447  0.17485671  0.00985464  1
  C  C316  1  0.95720206  0.16005351  0.00834603  1
  C  C317  1  0.93367461  0.23810772  0.01600519  1
  C  C318  1  0.30074887  0.10054990  0.00723889  1
  C  C319  1  0.29580309  0.11706196  0.00638025  1
  C  C320  1  0.31435596  0.13916934  0.00696838  1
  C  C321  1  0.33596770  0.14423127  0.00714912  1
  C  C322  1  0.21317263  0.09546647  0.00086065  1
  C  C323  1  0.32243952  0.10564070  0.00867103  1
  C  C324  1  0.27369947  0.11181082  0.00483277  1
  C  C325  1  0.25418111  0.10668234  0.00318709  1
  C  C326  1  0.23289779  0.10097888  0.00154307  1
  C  C327  1  0.34025093  0.12756068  0.00889015  1
  C  C328  1  0.81995116  0.75257860  0.00483888  1
  C  C329  1  0.81805776  0.77105926  0.00547156  1
  C  C330  1  0.79596481  0.76652254  0.00476687  1
  C  C331  1  0.77730559  0.74536000  0.00537617  1
  C  C332  1  0.88799074  0.85110844  0.01075867  1
  C  C333  1  0.80136214  0.73149377  0.00418686  1
  C  C334  1  0.83706372  0.79259286  0.00671752  1
  C  C335  1  0.85354488  0.81150468  0.00823464  1
  C  C336  1  0.87147951  0.83209256  0.00981939  1
  C  C337  1  0.77982566  0.72759461  0.00530080  1
  O  O338  1  0.98941233  0.97631997  0.03206915  1
  O  O339  1  0.01818016  0.07867421  0.02876499  1
  O  O340  1  0.08289739  0.04754475  0.99854001  1
  O  O341  1  0.73620231  0.38725987  0.59782515  1
  O  O342  1  0.73335757  0.35712087  0.57009461  1
  O  O343  1  0.72526554  0.40910432  0.43910591  1
  O  O344  1  0.69576744  0.41070769  0.46274911  1
  O  O345  1  0.67885908  0.33125393  0.57371725  1
  O  O346  1  0.68651524  0.36147430  0.60849424  1
  O  O347  1  0.70521298  0.40816196  0.59715188  1
  O  O348  1  0.67023177  0.39899055  0.57309233  1
  O  O349  1  0.65861897  0.35806165  0.44704077  1
  O  O350  1  0.68912261  0.35943343  0.42245561  1
  O  O351  1  0.73452772  0.37312008  0.44306132  1
  O  O352  1  0.71384728  0.33732496  0.45330633  1
  O  O353  1  0.70273066  0.37351645  0.51547226  1
