# generated using pymatgen
data_NiAg2H154C246(NO2)6
_symmetry_space_group_name_H-M   'P 1'
_cell_length_a   58.16589807
_cell_length_b   36.92980932
_cell_length_c   78.14915200
_cell_angle_alpha   91.29405785
_cell_angle_beta   89.29809695
_cell_angle_gamma   88.99041423
_symmetry_Int_Tables_number   1
_chemical_formula_structural   NiAg2H154C246(NO2)6
_chemical_formula_sum   'Ni1 Ag2 H154 C246 N6 O12'
_cell_volume   167786.41739015
_cell_formula_units_Z   1
loop_
 _symmetry_equiv_pos_site_id
 _symmetry_equiv_pos_as_xyz
  1  'x, y, z'
loop_
 _atom_site_type_symbol
 _atom_site_label
 _atom_site_symmetry_multiplicity
 _atom_site_fract_x
 _atom_site_fract_y
 _atom_site_fract_z
 _atom_site_occupancy
  Ni  Ni0  1  0.52432832  0.52121830  0.01542656  1
  Ag  Ag1  1  0.03005564  0.00812965  0.62681959  1
  Ag  Ag2  1  0.01214295  0.03729909  0.40688075  1
  H  H3  1  0.01814667  0.60341017  0.66823329  1
  H  H4  1  0.99324675  0.32783258  0.70479681  1
  H  H5  1  0.98992597  0.34810214  0.72550393  1
  H  H6  1  0.97688792  0.36859206  0.70777793  1
  H  H7  1  0.00220485  0.42113094  0.72423760  1
  H  H8  1  0.06899051  0.43205766  0.70079967  1
  H  H9  1  0.06543380  0.37001819  0.68720249  1
  H  H10  1  0.00669535  0.47371746  0.73212302  1
  H  H11  1  0.02798033  0.45460099  0.74587706  1
  H  H12  1  0.14037297  0.53268472  0.76170364  1
  H  H13  1  0.06326571  0.53867460  0.75031458  1
  H  H14  1  0.06869180  0.50093229  0.73585896  1
  H  H15  1  0.09457556  0.53414591  0.76172493  1
  H  H16  1  0.06791465  0.43391186  0.78010903  1
  H  H17  1  0.10347260  0.42514892  0.79716073  1
  H  H18  1  0.15171557  0.52448617  0.78229439  1
  H  H19  1  0.03348783  0.64397519  0.66534300  1
  H  H20  1  0.03478759  0.56757816  0.69679229  1
  H  H21  1  0.03663270  0.64004584  0.74070552  1
  H  H22  1  0.03961724  0.52867507  0.71484076  1
  H  H23  1  0.01067592  0.53847401  0.72202140  1
  H  H24  1  0.03630120  0.69310623  0.72119036  1
  H  H25  1  0.13045544  0.55910014  0.77939776  1
  H  H26  1  0.04848864  0.60193582  0.66698322  1
  H  H27  1  0.99843266  0.52413701  0.78635609  1
  H  H28  1  0.95184130  0.54212181  0.74479633  1
  H  H29  1  0.92126577  0.56196143  0.76590955  1
  H  H30  1  0.02011476  0.50779100  0.76744359  1
  H  H31  1  0.02206534  0.55354596  0.76033517  1
  H  H32  1  0.95573424  0.55212519  0.82060234  1
  H  H33  1  0.98442110  0.56256427  0.81516427  1
  H  H34  1  0.97644266  0.51688739  0.81688394  1
  H  H35  1  0.97269952  0.36881960  0.30698926  1
  H  H36  1  0.94387009  0.56701028  0.21225125  1
  H  H37  1  0.97218134  0.57852961  0.21807458  1
  H  H38  1  0.96463807  0.53256817  0.21624770  1
  H  H39  1  0.98488215  0.54229735  0.24693370  1
  H  H40  1  0.93545932  0.56038857  0.28794799  1
  H  H41  1  0.90586273  0.57771017  0.26655062  1
  H  H42  1  0.00508392  0.52543727  0.26595801  1
  H  H43  1  0.00675856  0.57170726  0.27333891  1
  H  H44  1  -0.00211504  0.62833939  0.36544018  1
  H  H45  1  0.02183091  0.55023630  0.31884174  1
  H  H46  1  0.99330740  0.55964984  0.31136660  1
  H  H47  1  0.01632338  0.59032683  0.33686940  1
  H  H48  1  0.02050471  0.65957795  0.29334797  1
  H  H49  1  0.01893343  0.71412610  0.31313624  1
  H  H50  1  0.01314385  0.66905172  0.36869493  1
  H  H51  1  0.97492524  0.35006263  0.32762664  1
  H  H52  1  0.98497803  0.44177480  0.30866818  1
  H  H53  1  0.05054437  0.45442891  0.33279662  1
  H  H54  1  0.98992437  0.49392388  0.30107377  1
  H  H55  1  0.01180293  0.47379635  0.28732516  1
  H  H56  1  0.04620620  0.39355510  0.34615017  1
  H  H57  1  0.02815170  0.62681416  0.36699092  1
  H  H58  1  0.95878425  0.39067220  0.32469136  1
  H  H59  1  0.07933146  0.55272217  0.27280218  1
  H  H60  1  0.05402637  0.45099694  0.25341840  1
  H  H61  1  0.09111204  0.44047145  0.23741605  1
  H  H62  1  0.04730364  0.55776571  0.28369809  1
  H  H63  1  0.05206396  0.52116142  0.29803734  1
  H  H64  1  0.13731667  0.54277094  0.25212688  1
  H  H65  1  0.12534794  0.55200097  0.27283121  1
  H  H66  1  0.11574416  0.57717037  0.25537448  1
  H  H67  1  0.67555740  0.66621053  0.98672133  1
  H  H68  1  0.59320244  0.65141420  0.98841699  1
  H  H69  1  0.55591207  0.61965210  0.99128875  1
  H  H70  1  0.56504998  0.61271577  0.04490273  1
  H  H71  1  0.60201154  0.64541047  0.04249622  1
  H  H72  1  0.67048965  0.67031564  0.04155825  1
  H  H73  1  0.70724132  0.69455745  0.09362687  1
  H  H74  1  0.73006445  0.69208539  0.12010095  1
  H  H75  1  0.79247716  0.68704021  0.08976724  1
  H  H76  1  0.76944936  0.68648903  0.06330195  1
  H  H77  1  0.73585570  0.68432046  0.01670106  1
  H  H78  1  0.77609948  0.68120007  0.96812836  1
  H  H79  1  0.79922923  0.67938471  0.94119742  1
  H  H80  1  0.73706096  0.68777729  0.91201030  1
  H  H81  1  0.71401483  0.68688657  0.93880022  1
  H  H82  1  0.37336640  0.37328736  0.04683481  1
  H  H83  1  0.45063047  0.40578276  0.04675632  1
  H  H84  1  0.48801286  0.43705928  0.04370145  1
  H  H85  1  0.48794995  0.41697935  0.98994945  1
  H  H86  1  0.45177709  0.38252750  0.99294267  1
  H  H87  1  0.37780367  0.37490836  0.99200131  1
  H  H88  1  0.33972214  0.37589099  0.94043480  1
  H  H89  1  0.31655293  0.37561684  0.91405603  1
  H  H90  1  0.25896496  0.33438315  0.94229336  1
  H  H91  1  0.28183534  0.33641605  0.96876677  1
  H  H92  1  0.31248544  0.36059993  0.01689079  1
  H  H93  1  0.27468801  0.33992100  0.06662438  1
  H  H94  1  0.25114289  0.34451610  0.09324486  1
  H  H95  1  0.31101445  0.37668662  0.12134137  1
  H  H96  1  0.33402262  0.37422131  0.09452817  1
  H  H97  1  0.89293227  0.64096894  0.81185370  1
  H  H98  1  0.89412793  0.53593019  0.83489587  1
  H  H99  1  0.92302526  0.51425086  0.81343325  1
  H  H100  1  0.92059922  0.61874644  0.78966161  1
  H  H101  1  0.81564539  0.59734874  0.89518865  1
  H  H102  1  0.78848629  0.61667576  0.91844021  1
  H  H103  1  0.78383786  0.72336539  0.89727678  1
  H  H104  1  0.81247508  0.70498821  0.87499996  1
  H  H105  1  0.87240996  0.54669536  0.20449677  1
  H  H106  1  0.89140039  0.65791181  0.21313279  1
  H  H107  1  0.91855536  0.63886098  0.23538861  1
  H  H108  1  0.89963999  0.52746077  0.22666187  1
  H  H109  1  0.81448009  0.71648307  0.15024236  1
  H  H110  1  0.78811856  0.73357211  0.12712191  1
  H  H111  1  0.76951695  0.62167363  0.12030046  1
  H  H112  1  0.79676392  0.60441889  0.14289374  1
  H  H113  1  0.16549224  0.38937227  0.81456182  1
  H  H114  1  0.16835719  0.49920614  0.83418764  1
  H  H115  1  0.14199912  0.51925306  0.81183090  1
  H  H116  1  0.13965168  0.40939246  0.79173845  1
  H  H117  1  0.24313093  0.43987676  0.89565994  1
  H  H118  1  0.27063436  0.42301170  0.91818985  1
  H  H119  1  0.26727062  0.31106031  0.90175486  1
  H  H120  1  0.24159708  0.32836217  0.87827340  1
  H  H121  1  0.15248550  0.50967670  0.19791772  1
  H  H122  1  0.15797011  0.40709231  0.22294447  1
  H  H123  1  0.12972699  0.42875280  0.24483421  1
  H  H124  1  0.12544657  0.53229007  0.22032517  1
  H  H125  1  0.23948232  0.34295524  0.16072887  1
  H  H126  1  0.26748718  0.32395471  0.13818729  1
  H  H127  1  0.25574802  0.42488230  0.11273147  1
  H  H128  1  0.22842838  0.44455868  0.13576736  1
  H  H129  1  0.07164292  0.19162409  0.66520181  1
  H  H130  1  0.99824593  0.19481841  0.65845097  1
  H  H131  1  -0.00015836  0.13210179  0.64638653  1
  H  H132  1  0.07338742  0.12893683  0.65314589  1
  H  H133  1  0.07308969  0.82701006  0.66437265  1
  H  H134  1  -0.00077565  0.82301105  0.66209969  1
  H  H135  1  -0.00201313  0.88483951  0.65045956  1
  H  H136  1  0.07200624  0.88890446  0.65277687  1
  H  H137  1  0.04988525  0.85496096  0.36654134  1
  H  H138  1  0.97725066  0.84552172  0.37647175  1
  H  H139  1  0.97576912  0.90839214  0.38829992  1
  H  H140  1  0.04856451  0.91786259  0.37834989  1
  H  H141  1  0.97542972  0.21667345  0.36575858  1
  H  H142  1  0.04845491  0.21924597  0.37416745  1
  H  H143  1  0.04722412  0.15811551  0.38654643  1
  H  H144  1  0.97407554  0.15548201  0.37805358  1
  H  H145  1  0.99190005  0.05139559  0.46373998  1
  H  H146  1  0.03063308  0.05020067  0.47865273  1
  H  H147  1  -0.00645552  0.04676376  0.49613818  1
  H  H148  1  0.05464187  0.04054256  0.57248517  1
  H  H149  1  0.01699359  0.04151020  0.55663796  1
  H  H150  1  0.05357335  0.04523169  0.53894116  1
  H  H151  1  0.05643789  0.99280682  0.56987435  1
  H  H152  1  0.01791570  0.99409990  0.55457742  1
  H  H153  1  0.05509754  0.99738470  0.53721491  1
  H  H154  1  0.99363395  0.00365058  0.46118081  1
  H  H155  1  0.03160855  0.00278719  0.47657230  1
  H  H156  1  -0.00487448  -0.00106820  0.49440006  1
  C  C157  1  0.03083675  0.01203472  0.58662414  1
  C  C158  1  0.03313594  0.92677642  0.64450784  1
  C  C159  1  0.03794595  0.08938368  0.64345499  1
  C  C160  1  0.01699707  0.03205528  0.44663002  1
  C  C161  1  0.00865470  0.11790581  0.39038876  1
  C  C162  1  0.01061058  0.95355719  0.39054926  1
  C  C163  1  0.03218380  0.51233697  0.74105289  1
  C  C164  1  0.03195596  0.36103981  0.69836666  1
  C  C165  1  0.03609192  0.42897151  0.71369171  1
  C  C166  1  0.01373312  0.37504837  0.70881993  1
  C  C167  1  0.99244988  0.35379646  0.71182806  1
  C  C168  1  0.01616936  0.40949616  0.71635602  1
  C  C169  1  0.05377880  0.41589027  0.70284259  1
  C  C170  1  0.05184736  0.38185383  0.69538590  1
  C  C171  1  0.02498385  0.47380629  0.73552064  1
  C  C172  1  0.11938628  0.47375090  0.78845264  1
  C  C173  1  0.07951237  0.48397841  0.76954734  1
  C  C174  1  0.11713192  0.50475766  0.77831286  1
  C  C175  1  0.13600437  0.53137183  0.77548939  1
  C  C176  1  0.09671265  0.50967372  0.76914418  1
  C  C177  1  0.08168190  0.45350532  0.77963698  1
  C  C178  1  0.10176673  0.44817489  0.78878369  1
  C  C179  1  0.05766065  0.51143412  0.74648004  1
  C  C180  1  0.03564258  0.65973509  0.69805600  1
  C  C181  1  0.03524227  0.60121142  0.71973133  1
  C  C182  1  0.03477702  0.62430471  0.69092201  1
  C  C183  1  0.03368735  0.61816357  0.67195336  1
  C  C184  1  0.03485208  0.59512078  0.70209725  1
  C  C185  1  0.03625257  0.63622622  0.72686128  1
  C  C186  1  0.03614380  0.66536042  0.71613256  1
  C  C187  1  0.02885644  0.53783706  0.72582314  1
  C  C188  1  0.94270077  0.55326285  0.78785828  1
  C  C189  1  0.97715999  0.53386491  0.76431625  1
  C  C190  1  0.96446280  0.54264385  0.79385186  1
  C  C191  1  0.97037937  0.54357069  0.81254515  1
  C  C192  1  0.98164195  0.53278934  0.78174395  1
  C  C193  1  0.95527803  0.54277919  0.75847186  1
  C  C194  1  0.93829827  0.55399492  0.77025217  1
  C  C195  1  0.01739953  0.52570990  0.75658341  1
  C  C196  1  0.01581950  0.53185779  0.29249413  1
  C  C197  1  0.92908941  0.57022127  0.24493882  1
  C  C198  1  0.96210751  0.55209131  0.26875847  1
  C  C199  1  0.95129857  0.56008125  0.23916935  1
  C  C200  1  0.95812603  0.55956261  0.22052444  1
  C  C201  1  0.96774093  0.55072500  0.25140572  1
  C  C202  1  0.93973670  0.56042801  0.27433620  1
  C  C203  1  0.92327083  0.57014514  0.26239946  1
  C  C204  1  0.00185669  0.54415621  0.27689213  1
  C  C205  1  0.01676681  0.68237644  0.33606125  1
  C  C206  1  0.01787739  0.62233455  0.31412220  1
  C  C207  1  0.01572165  0.64747642  0.34303077  1
  C  C208  1  0.01364314  0.64274766  0.36195448  1
  C  C209  1  0.01655444  0.61749177  0.33171304  1
  C  C210  1  0.01930658  0.65680748  0.30716533  1
  C  C211  1  0.01847675  0.68673663  0.31803258  1
  C  C212  1  0.01168907  0.55856180  0.30777421  1
  C  C213  1  0.01334049  0.38363240  0.33460943  1
  C  C214  1  0.01833266  0.45043451  0.31953809  1
  C  C215  1  0.99568390  0.39691205  0.32403491  1
  C  C216  1  0.97452734  0.37550906  0.32071970  1
  C  C217  1  0.99853278  0.43076803  0.31664162  1
  C  C218  1  0.03541913  0.43815150  0.33052916  1
  C  C219  1  0.03305875  0.40471668  0.33786043  1
  C  C220  1  0.00836365  0.49371574  0.29778687  1
  C  C221  1  0.10566716  0.49086034  0.24586973  1
  C  C222  1  0.06485080  0.50191992  0.26441778  1
  C  C223  1  0.10277024  0.52262478  0.25609348  1
  C  C224  1  0.12136454  0.54976473  0.25904377  1
  C  C225  1  0.08192293  0.52781048  0.26520335  1
  C  C226  1  0.06772890  0.47067303  0.25422610  1
  C  C227  1  0.08843520  0.46469814  0.24545458  1
  C  C228  1  0.04158038  0.53075891  0.28734050  1
  C  C229  1  0.68352744  0.66999128  0.99916192  1
  C  C230  1  0.66995304  0.66844054  0.01399051  1
  C  C231  1  0.64593262  0.66232692  0.01309261  1
  C  C232  1  0.62534064  0.65569873  0.01330046  1
  C  C233  1  0.60238494  0.64427654  0.01484251  1
  C  C234  1  0.58778879  0.64045355  0.00062554  1
  C  C235  1  0.56741768  0.62178605  0.00211292  1
  C  C236  1  0.56219472  0.60424137  0.01741065  1
  C  C237  1  0.57268899  0.61744066  0.03240000  1
  C  C238  1  0.59272662  0.63683500  0.03110855  1
  C  C239  1  0.68071815  0.67224460  0.02985183  1
  C  C240  1  0.70431663  0.67828719  0.03106872  1
  C  C241  1  0.71451708  0.68238831  0.04740313  1
  C  C242  1  0.72415322  0.68566202  0.06120306  1
  C  C243  1  0.73662704  0.68812467  0.07655384  1
  C  C244  1  0.72589757  0.69159067  0.09286011  1
  C  C245  1  0.73872131  0.69015130  0.10766437  1
  C  C246  1  0.76273329  0.68638946  0.10663048  1
  C  C247  1  0.77376839  0.68746336  0.09054238  1
  C  C248  1  0.76098665  0.68761114  0.07582469  1
  C  C249  1  0.71741163  0.67999621  0.01592953  1
  C  C250  1  0.70719726  0.67615773  -0.00013299  1
  C  C251  1  0.71996295  0.67838963  0.98433954  1
  C  C252  1  0.73082059  0.68038852  0.97085907  1
  C  C253  1  0.74339368  0.68214086  0.95535915  1
  C  C254  1  0.76771731  0.68145666  0.95573605  1
  C  C255  1  0.78052308  0.67994193  0.94079397  1
  C  C256  1  0.76958270  0.68003536  0.92483182  1
  C  C257  1  0.74564333  0.68518884  0.92424281  1
  C  C258  1  0.73271998  0.68522636  0.93924206  1
  C  C259  1  0.36518243  0.37131504  0.03439116  1
  C  C260  1  0.37861475  0.37420651  0.01954570  1
  C  C261  1  0.40267793  0.37998129  0.02043791  1
  C  C262  1  0.42328465  0.38658267  0.02047831  1
  C  C263  1  0.44627764  0.39811446  0.01951216  1
  C  C264  1  0.45816372  0.41021926  0.03415365  1
  C  C265  1  0.47859110  0.42857610  0.03241329  1
  C  C266  1  0.48642765  0.43821698  0.01610122  1
  C  C267  1  0.47847345  0.41773509  0.00203383  1
  C  C268  1  0.45868104  0.39775326  0.00377657  1
  C  C269  1  0.36765049  0.37220111  0.00369768  1
  C  C270  1  0.34395906  0.36692450  0.00248677  1
  C  C271  1  0.33352040  0.36439254  0.98617149  1
  C  C272  1  0.32394977  0.36172016  0.97231553  1
  C  C273  1  0.31188869  0.35877671  0.95679088  1
  C  C274  1  0.32175221  0.36808357  0.94087998  1
  C  C275  1  0.30871375  0.36832560  0.92620114  1
  C  C276  1  0.28548629  0.35846258  0.92678689  1
  C  C277  1  0.27644572  0.34446708  0.94196597  1
  C  C278  1  0.28922760  0.34533417  0.95672882  1
  C  C279  1  0.33099988  0.36421259  0.01764395  1
  C  C280  1  0.34139942  0.36612436  0.03370461  1
  C  C281  1  0.32861020  0.36320215  0.04919822  1
  C  C282  1  0.31788726  0.36100407  0.06273431  1
  C  C283  1  0.30555277  0.35972351  0.07837282  1
  C  C284  1  0.28226643  0.34926426  0.07858013  1
  C  C285  1  0.26918440  0.35188734  0.09341630  1
  C  C286  1  0.27906178  0.36383873  0.10883777  1
  C  C287  1  0.30280037  0.36978380  0.10927382  1
  C  C288  1  0.31576121  0.36817350  0.09429217  1
  C  C289  1  0.89947844  0.61311117  0.81200219  1
  C  C290  1  0.89160656  0.59030626  0.82518593  1
  C  C291  1  0.90042908  0.55417305  0.82516973  1
  C  C292  1  0.91684617  0.54226998  0.81334705  1
  C  C293  1  0.92442225  0.56539708  0.80039995  1
  C  C294  1  0.91497610  0.60064939  0.79964517  1
  C  C295  1  0.87562157  0.60311290  0.83754777  1
  C  C296  1  0.86162505  0.61464083  0.84830100  1
  C  C297  1  0.84638536  0.62717624  0.86000691  1
  C  C298  1  0.83237003  0.63845804  0.87079976  1
  C  C299  1  0.81636712  0.64986365  0.88344928  1
  C  C300  1  0.80896328  0.62512567  0.89596671  1
  C  C301  1  0.79396107  0.63588598  0.90891020  1
  C  C302  1  0.78462772  0.67133369  0.90956097  1
  C  C303  1  0.79090262  0.69584519  0.89694865  1
  C  C304  1  0.80685973  0.68553646  0.88439908  1
  C  C305  1  0.88267496  0.56677538  0.21123606  1
  C  C306  1  0.87997194  0.60377109  0.20697990  1
  C  C307  1  0.89337524  0.62933337  0.21615059  1
  C  C308  1  0.90858497  0.61863491  0.22851370  1
  C  C309  1  0.91142978  0.58172378  0.23217143  1
  C  C310  1  0.89798869  0.55602188  0.22357650  1
  C  C311  1  0.86468673  0.61523982  0.19439267  1
  C  C312  1  0.85136349  0.62598647  0.18348802  1
  C  C313  1  0.83685473  0.63769401  0.17162044  1
  C  C314  1  0.82349923  0.64835337  0.16071899  1
  C  C315  1  0.80802623  0.65905390  0.14809467  1
  C  C316  1  0.80479654  0.69571092  0.14349324  1
  C  C317  1  0.79004204  0.70523636  0.13051357  1
  C  C318  1  0.77741851  0.67863819  0.12190115  1
  C  C319  1  0.77955035  0.64231445  0.12681146  1
  C  C320  1  0.79463386  0.63271030  0.13942862  1
  C  C321  1  0.16029088  0.41784156  0.81380524  1
  C  C322  1  0.16899898  0.44269339  0.82615887  1
  C  C323  1  0.16214762  0.47964150  0.82473132  1
  C  C324  1  0.14757157  0.49094058  0.81200349  1
  C  C325  1  0.13860234  0.46568310  0.80011809  1
  C  C326  1  0.14543642  0.42897648  0.80130675  1
  C  C327  1  0.18381181  0.43045005  0.83891460  1
  C  C328  1  0.19698624  0.41913784  0.84980241  1
  C  C329  1  0.21134830  0.40681188  0.86165182  1
  C  C330  1  0.22463926  0.39594841  0.87256335  1
  C  C331  1  0.23997869  0.38536446  0.88532109  1
  C  C332  1  0.24879669  0.41176196  0.89690991  1
  C  C333  1  0.26402071  0.40237585  0.90947690  1
  C  C334  1  0.27024239  0.36585944  0.91181594  1
  C  C335  1  0.26197533  0.33930244  0.90048321  1
  C  C336  1  0.24755931  0.34897882  0.88729684  1
  C  C337  1  0.14787467  0.49233114  0.20849392  1
  C  C338  1  0.15741741  0.45661266  0.20866778  1
  C  C339  1  0.15057868  0.43441034  0.22237927  1
  C  C340  1  0.13469034  0.44648787  0.23451690  1
  C  C341  1  0.12555231  0.48207566  0.23427177  1
  C  C342  1  0.13273788  0.50499170  0.22109795  1
  C  C343  1  0.17300436  0.44330550  0.19610307  1
  C  C344  1  0.18683775  0.43137462  0.18531097  1
  C  C345  1  0.20191013  0.41839082  0.17356306  1
  C  C346  1  0.21578814  0.40682429  0.16272076  1
  C  C347  1  0.23165641  0.39516133  0.14999539  1
  C  C348  1  0.24320838  0.36101321  0.15024403  1
  C  C349  1  0.25888969  0.35033052  0.13753099  1
  C  C350  1  0.26336669  0.37307066  0.12382642  1
  C  C351  1  0.25204104  0.40702794  0.12327932  1
  C  C352  1  0.23686630  0.41798044  0.13610302  1
  C  C353  1  0.50247030  0.46940954  0.01500302  1
  C  C354  1  0.54630070  0.57278066  0.01720169  1
  C  C355  1  0.05604157  0.17815675  0.66116271  1
  C  C356  1  0.03471661  0.19732490  0.66305823  1
  C  C357  1  0.01453918  0.17988861  0.65732777  1
  C  C358  1  0.01545997  0.14508944  0.65069974  1
  C  C359  1  0.03664358  0.12594054  0.64953386  1
  C  C360  1  0.05696403  0.14337052  0.65452744  1
  C  C361  1  0.03333388  0.23233369  0.67027044  1
  C  C362  1  0.03228301  0.26274988  0.67690423  1
  C  C363  1  0.03116671  0.29584642  0.68413001  1
  C  C364  1  0.03091689  0.32635306  0.69076435  1
  C  C365  1  0.05675461  0.83994442  0.66120562  1
  C  C366  1  0.03628851  0.82028135  0.66379713  1
  C  C367  1  0.01502662  0.83770480  0.65991369  1
  C  C368  1  0.01437203  0.87206931  0.65357871  1
  C  C369  1  0.03486970  0.89118734  0.65098950  1
  C  C370  1  0.05610459  0.87444800  0.65486418  1
  C  C371  1  0.03682424  0.78499106  0.66997150  1
  C  C372  1  0.03668850  0.75413758  0.67548354  1
  C  C373  1  0.03641637  0.72064348  0.68157116  1
  C  C374  1  0.03599319  0.69029519  0.68773216  1
  C  C375  1  0.03380264  0.86698495  0.37142858  1
  C  C376  1  0.01375562  0.84557106  0.37093264  1
  C  C377  1  0.99273381  0.86164751  0.37704291  1
  C  C378  1  0.99192773  0.89655933  0.38348920  1
  C  C379  1  0.01202260  0.91739786  0.38397705  1
  C  C380  1  0.03300101  0.90195195  0.37788338  1
  C  C381  1  0.01465285  0.80981676  0.36461989  1
  C  C382  1  0.01516929  0.77854487  0.35896484  1
  C  C383  1  0.01571462  0.74454839  0.35278574  1
  C  C384  1  0.01610957  0.71365427  0.34655638  1
  C  C385  1  0.99098329  0.20350862  0.37040113  1
  C  C386  1  0.01201223  0.22242498  0.36913453  1
  C  C387  1  0.03224415  0.20506140  0.37514008  1
  C  C388  1  0.03153588  0.17106270  0.38204141  1
  C  C389  1  0.01050596  0.15285140  0.38328316  1
  C  C390  1  0.99028030  0.16966990  0.37724132  1
  C  C391  1  0.01218366  0.25688233  0.36202802  1
  C  C392  1  0.01195328  0.28685876  0.35556729  1
  C  C393  1  0.01170309  0.31947640  0.34852860  1
  C  C394  1  0.01191182  0.34951055  0.34205864  1
  C  C395  1  0.00416875  0.02819907  0.46247540  1
  C  C396  1  0.01968739  0.02620180  0.47794014  1
  C  C397  1  0.00592623  0.02350850  0.49479108  1
  C  C398  1  0.02078537  0.02267521  0.50931479  1
  C  C399  1  0.04415516  0.01599913  0.57099518  1
  C  C400  1  0.02889433  0.01805373  0.55535556  1
  C  C401  1  0.04275082  0.02068433  0.53854527  1
  C  C402  1  0.02792188  0.02155104  0.52399969  1
  N  N403  1  0.01985288  0.00866492  0.59910062  1
  N  N404  1  0.03060899  0.95591465  0.63920577  1
  N  N405  1  0.03976867  0.05918839  0.63873786  1
  N  N406  1  0.02696153  0.03528433  0.43368000  1
  N  N407  1  0.00541536  0.08935097  0.39602109  1
  N  N408  1  0.00862141  0.98325367  0.39592815  1
  O  O409  1  0.03896443  0.46265541  0.72076408  1
  O  O410  1  0.05947398  0.48717175  0.76075462  1
  O  O411  1  0.03540154  0.57395586  0.73120850  1
  O  O412  1  0.99333641  0.52555716  0.75198728  1
  O  O413  1  0.97755005  0.54448439  0.28123029  1
  O  O414  1  0.01863251  0.59416852  0.30254566  1
  O  O415  1  0.02165556  0.48349574  0.31257178  1
  O  O416  1  0.04430162  0.50547406  0.27296593  1
  O  O417  1  0.51170771  0.48166524  0.02881019  1
  O  O418  1  0.50640282  0.48566304  0.00097842  1
  O  O419  1  0.54456915  0.55203952  0.03005291  1
  O  O420  1  0.53494208  0.56501015  0.00360552  1
