# generated using pymatgen
data_H54C119N6O
_symmetry_space_group_name_H-M   'P 1'
_cell_length_a   52.00739860
_cell_length_b   51.96358637
_cell_length_c   32.50499543
_cell_angle_alpha   90.10644203
_cell_angle_beta   89.86477620
_cell_angle_gamma   67.74309904
_symmetry_Int_Tables_number   1
_chemical_formula_structural   H54C119N6O
_chemical_formula_sum   'H108 C238 N12 O2'
_cell_volume   81299.00942404
_cell_formula_units_Z   2
loop_
 _symmetry_equiv_pos_site_id
 _symmetry_equiv_pos_as_xyz
  1  'x, y, z'
loop_
 _atom_site_type_symbol
 _atom_site_label
 _atom_site_symmetry_multiplicity
 _atom_site_fract_x
 _atom_site_fract_y
 _atom_site_fract_z
 _atom_site_occupancy
  H  H0  1  0.08395520  0.53993974  0.00393221  1
  H  H1  1  0.02879958  0.51995547  0.89939237  1
  H  H2  1  0.02922856  0.51904920  0.10850276  1
  H  H3  1  0.06039480  0.58867455  0.86416135  1
  H  H4  1  0.04785590  0.57940893  0.93496986  1
  H  H5  1  0.07790764  0.49194943  0.90543145  1
  H  H6  1  0.09795172  0.50084593  0.83997323  1
  H  H7  1  0.06023451  0.58951690  0.14299285  1
  H  H8  1  0.04662677  0.57969410  0.07325192  1
  H  H9  1  0.07973541  0.49216433  0.10186171  1
  H  H10  1  0.10110343  0.50172360  0.16544855  1
  H  H11  1  0.93468196  0.48421409  0.00377879  1
  H  H12  1  0.98998163  0.50433781  0.89935219  1
  H  H13  1  0.98927693  0.50494250  0.10847171  1
  H  H14  1  0.95813205  0.43543109  0.86399851  1
  H  H15  1  0.97062756  0.44485373  0.93468379  1
  H  H16  1  0.94076598  0.53222169  0.90537115  1
  H  H17  1  0.92071197  0.52319942  0.84016337  1
  H  H18  1  0.95852971  0.43466450  0.14284246  1
  H  H19  1  0.97214030  0.44433334  0.07297900  1
  H  H20  1  0.93882940  0.53196098  0.10173525  1
  H  H21  1  0.91756061  0.52253162  0.16568577  1
  H  H22  1  0.47605244  0.94119356  0.00395734  1
  H  H23  1  0.50048481  0.99331710  0.89940585  1
  H  H24  1  0.49995060  0.99384198  0.10855958  1
  H  H25  1  0.52073418  0.90508493  0.86043690  1
  H  H26  1  0.52416514  0.92219029  0.93096698  1
  H  H27  1  0.45034531  0.99458220  0.90778890  1
  H  H28  1  0.44265271  0.97304667  0.84296166  1
  H  H29  1  0.52116594  0.90463619  0.14673333  1
  H  H30  1  0.52538413  0.92270968  0.07735772  1
  H  H31  1  0.44911639  0.99291980  0.09912283  1
  H  H32  1  0.44095010  0.97024317  0.16240015  1
  H  H33  1  0.54247541  0.08320431  0.00383039  1
  H  H34  1  0.51802480  0.03094474  0.89936190  1
  H  H35  1  0.51865960  0.03065606  0.10850579  1
  H  H36  1  0.49786818  0.11925523  0.86067394  1
  H  H37  1  0.49414727  0.10223426  0.93108147  1
  H  H38  1  0.56813105  0.02988339  0.90746399  1
  H  H39  1  0.57604355  0.05140766  0.84281998  1
  H  H40  1  0.49716527  0.11983013  0.14681556  1
  H  H41  1  0.49335277  0.10157066  0.07728743  1
  H  H42  1  0.56948098  0.03142585  0.09908235  1
  H  H43  1  0.57736156  0.05432066  0.16238926  1
  H  H44  1  0.47240729  0.50581647  0.56250189  1
  H  H45  1  0.54620613  0.51851280  0.44622270  1
  H  H46  1  0.49523200  0.53981530  0.46566290  1
  H  H47  1  0.53551523  0.54347495  0.51084547  1
  H  H48  1  0.52440159  0.52673716  0.55020697  1
  H  H49  1  0.52335693  0.48448253  0.54300232  1
  H  H50  1  0.48306870  0.48084458  0.49783365  1
  H  H51  1  0.49417359  0.49758944  0.45847207  1
  H  H52  1  0.15908172  0.59982068  0.45865641  1
  H  H53  1  0.23019346  0.59991693  0.39210213  1
  H  H54  1  0.28008948  0.59962953  0.43812936  1
  H  H55  1  0.27993088  0.59962775  0.57009613  1
  H  H56  1  0.23000676  0.59989413  0.61614554  1
  H  H57  1  0.15899371  0.59984328  0.54982169  1
  H  H58  1  0.59658187  0.28325796  0.43852049  1
  H  H59  1  0.59654386  0.28338386  0.57048244  1
  H  H60  1  0.59694491  0.23329642  0.61645995  1
  H  H61  1  0.59689402  0.16222106  0.54968842  1
  H  H62  1  0.59689606  0.16220580  0.45860693  1
  H  H63  1  0.59700895  0.23328898  0.39233214  1
  H  H64  1  0.73859470  0.42458853  0.43853926  1
  H  H65  1  0.73848474  0.42461169  0.57050622  1
  H  H66  1  0.78845786  0.42438581  0.61647720  1
  H  H67  1  0.85952079  0.42439441  0.54971486  1
  H  H68  1  0.85953077  0.42434881  0.45853943  1
  H  H69  1  0.78844428  0.42426085  0.39243844  1
  H  H70  1  0.42168447  0.86208359  0.45862671  1
  H  H71  1  0.42159477  0.79095007  0.39204314  1
  H  H72  1  0.42201680  0.74093940  0.43804987  1
  H  H73  1  0.42199925  0.74109159  0.57000970  1
  H  H74  1  0.42156307  0.79114515  0.61616563  1
  H  H75  1  0.42164802  0.86217865  0.54973419  1
  H  H76  1  0.14034035  0.59054196  0.79616412  1
  H  H77  1  0.16402682  0.60430645  0.73854564  1
  H  H78  1  0.13635092  0.55622548  0.65452247  1
  H  H79  1  0.11270376  0.54247084  0.71218471  1
  H  H80  1  0.58737120  0.14408798  0.79632981  1
  H  H81  1  0.60097202  0.16780245  0.73869959  1
  H  H82  1  0.55494926  0.13786818  0.65447367  1
  H  H83  1  0.54144607  0.11411684  0.71210232  1
  H  H84  1  0.92541951  0.41624521  0.25682017  1
  H  H85  1  0.90092614  0.40314342  0.31414549  1
  H  H86  1  0.83494409  0.48365170  0.30799062  1
  H  H87  1  0.85948531  0.49669188  0.25068917  1
  H  H88  1  0.41207790  0.91424577  0.23671384  1
  H  H89  1  0.39850452  0.89046375  0.29427365  1
  H  H90  1  0.48425168  0.85051062  0.32853408  1
  H  H91  1  0.49779711  0.87432451  0.27097491  1
  H  H92  1  0.56937874  0.09495559  0.29257347  1
  H  H93  1  0.58364885  0.11829589  0.35004473  1
  H  H94  1  0.57233871  0.18847481  0.27219081  1
  H  H95  1  0.55816602  0.16501605  0.21471041  1
  H  H96  1  0.11515149  0.60856419  0.22844965  1
  H  H97  1  0.13923244  0.62152605  0.28624608  1
  H  H98  1  0.16174897  0.53957213  0.33680497  1
  H  H99  1  0.13759257  0.52668193  0.27905827  1
  H  H100  1  0.88744361  0.42568948  0.79181048  1
  H  H101  1  0.86367623  0.41215078  0.73422227  1
  H  H102  1  0.87286982  0.47604089  0.65885012  1
  H  H103  1  0.89662777  0.48954793  0.71647624  1
  H  H104  1  0.44457811  0.93169557  0.71689773  1
  H  H105  1  0.43064115  0.90787730  0.65969668  1
  H  H106  1  0.44978259  0.83497002  0.73460831  1
  H  H107  1  0.46369566  0.85887153  0.79177917  1
  C  C108  1  0.96355901  0.49490994  0.96670910  1
  C  C109  1  0.96359827  0.49470702  0.04088085  1
  C  C110  1  0.98622944  0.50391375  0.96589249  1
  C  C111  1  0.98618281  0.50384812  0.04193874  1
  C  C112  1  0.99829352  0.50796748  0.92854676  1
  C  C113  1  0.99806484  0.50803215  0.07932323  1
  C  C114  1  0.95286731  0.48981893  0.00376915  1
  C  C115  1  0.99783677  0.50800312  0.00393360  1
  C  C116  1  0.08452685  0.54521978  0.85093202  1
  C  C117  1  0.08503085  0.54633302  0.15608030  1
  C  C118  1  0.06700749  0.56749254  0.87577779  1
  C  C119  1  0.06696537  0.56825169  0.13150836  1
  C  C120  1  0.05920183  0.56231652  0.91429940  1
  C  C121  1  0.05872638  0.56274759  0.09346285  1
  C  C122  1  0.06498905  0.53468927  0.92630060  1
  C  C123  1  0.06498700  0.53500453  0.08140570  1
  C  C124  1  0.07630975  0.51287952  0.89761430  1
  C  C125  1  0.07760728  0.51329677  0.10953409  1
  C  C126  1  0.08725082  0.51783485  0.86119339  1
  C  C127  1  0.08896865  0.51866759  0.14523921  1
  C  C128  1  0.05510309  0.52931606  0.96686444  1
  C  C129  1  0.05502262  0.52935849  0.04103713  1
  C  C130  1  0.03245105  0.52029726  0.96594789  1
  C  C131  1  0.03241739  0.52023528  0.04199333  1
  C  C132  1  0.02044633  0.51629375  0.92857242  1
  C  C133  1  0.02047895  0.51599546  0.07934648  1
  C  C134  1  0.06577140  0.53433213  0.00394489  1
  C  C135  1  0.02080298  0.51614489  0.00396424  1
  C  C136  1  0.93411158  0.47883769  0.85086723  1
  C  C137  1  0.93380127  0.47790758  0.15624436  1
  C  C138  1  0.95154329  0.45664714  0.87564523  1
  C  C139  1  0.95180711  0.45590715  0.13144716  1
  C  C140  1  0.95933912  0.46190999  0.91411057  1
  C  C141  1  0.96000553  0.46132140  0.09329711  1
  C  C142  1  0.95368308  0.48954353  0.92615891  1
  C  C143  1  0.95363150  0.48904595  0.08126422  1
  C  C144  1  0.94234676  0.51127242  0.89757580  1
  C  C145  1  0.94101510  0.51084516  0.10948312  1
  C  C146  1  0.93139801  0.50623585  0.86124661  1
  C  C147  1  0.92973558  0.50555836  0.14535591  1
  C  C148  1  0.52966712  0.05576333  0.96678388  1
  C  C149  1  0.52969510  0.05581247  0.04090372  1
  C  C150  1  0.51968549  0.03374221  0.96590658  1
  C  C151  1  0.51973757  0.03376110  0.04196363  1
  C  C152  1  0.51423118  0.02268376  0.92853051  1
  C  C153  1  0.51444476  0.02264563  0.07936690  1
  C  C154  1  0.53402414  0.06694251  0.00383503  1
  C  C155  1  0.51448050  0.02289427  0.00395397  1
  C  C156  1  0.47877221  0.93507413  0.85080898  1
  C  C157  1  0.47866150  0.93370496  0.15587819  1
  C  C158  1  0.50368875  0.92272915  0.87345967  1
  C  C159  1  0.50402608  0.92212510  0.13380170  1
  C  C160  1  0.50609030  0.93290002  0.91183452  1
  C  C161  1  0.50679413  0.93280334  0.09598116  1
  C  C162  1  0.48523922  0.95755898  0.92610762  1
  C  C163  1  0.48560300  0.95706404  0.08155381  1
  C  C164  1  0.46424401  0.97368517  0.89899099  1
  C  C165  1  0.46354869  0.97229714  0.10794690  1
  C  C166  1  0.46020959  0.96195974  0.86282185  1
  C  C167  1  0.45935627  0.96006864  0.14345479  1
  C  C168  1  0.48874607  0.96866819  0.96687134  1
  C  C169  1  0.48900651  0.96851102  0.04098598  1
  C  C170  1  0.49878628  0.99064554  0.96595940  1
  C  C171  1  0.49888676  0.99061993  0.04201675  1
  C  C172  1  0.50423648  0.00165215  0.92855630  1
  C  C173  1  0.50418845  0.00178607  0.07939495  1
  C  C174  1  0.48451495  0.95744691  0.00392357  1
  C  C175  1  0.50406533  0.00149162  0.00398194  1
  C  C176  1  0.54001474  0.08946362  0.85116830  1
  C  C177  1  0.53953205  0.09074834  0.15609459  1
  C  C178  1  0.51490279  0.10169698  0.87366977  1
  C  C179  1  0.51434577  0.10227680  0.13387021  1
  C  C180  1  0.51231326  0.09151743  0.91192140  1
  C  C181  1  0.51182944  0.09154016  0.09595954  1
  C  C182  1  0.53313067  0.06688460  0.92603443  1
  C  C183  1  0.53312279  0.06725922  0.08148800  1
  C  C184  1  0.55425095  0.05076949  0.89881705  1
  C  C185  1  0.55500884  0.05208324  0.10791632  1
  C  C186  1  0.55844674  0.06251076  0.86280465  1
  C  C187  1  0.55900606  0.06441417  0.14350679  1
  C  C188  1  0.49468587  0.54184766  0.49976453  1
  C  C189  1  0.47867956  0.52325830  0.51268583  1
  C  C190  1  0.52464749  0.52935856  0.51665221  1
  C  C191  1  0.52389491  0.48247156  0.50889804  1
  C  C192  1  0.49393578  0.49496177  0.49202613  1
  C  C193  1  0.53991002  0.50105825  0.49600603  1
  C  C194  1  0.19865811  0.60134209  0.48211706  1
  C  C195  1  0.19861422  0.60134896  0.52623609  1
  C  C196  1  0.22256431  0.60136877  0.54861209  1
  C  C197  1  0.24645738  0.60135505  0.52640090  1
  C  C198  1  0.24649462  0.60135869  0.48184202  1
  C  C199  1  0.22264821  0.60136462  0.45967198  1
  C  C200  1  0.17975198  0.59972397  0.45312832  1
  C  C201  1  0.21709447  0.59975282  0.41810507  1
  C  C202  1  0.27275731  0.59928153  0.46941055  1
  C  C203  1  0.27270030  0.59925689  0.53880844  1
  C  C204  1  0.21694980  0.59973625  0.59018258  1
  C  C205  1  0.17966630  0.59971462  0.55527494  1
  C  C206  1  0.59833128  0.24972728  0.48216107  1
  C  C207  1  0.59840417  0.22582114  0.45986170  1
  C  C208  1  0.59838597  0.20184354  0.48221120  1
  C  C209  1  0.59835775  0.20187373  0.52634629  1
  C  C210  1  0.59834605  0.22586435  0.54886031  1
  C  C211  1  0.59829881  0.24977104  0.52673047  1
  C  C212  1  0.59614323  0.27602200  0.46979454  1
  C  C213  1  0.59607996  0.27610277  0.53920032  1
  C  C214  1  0.59673606  0.22024143  0.59041809  1
  C  C215  1  0.59674128  0.18291819  0.55529621  1
  C  C216  1  0.59677120  0.18289422  0.45314606  1
  C  C217  1  0.59680114  0.22021808  0.41827770  1
  C  C218  1  0.77207828  0.42286721  0.48221173  1
  C  C219  1  0.79595895  0.42282626  0.45994721  1
  C  C220  1  0.81992993  0.42285359  0.48225959  1
  C  C221  1  0.81991021  0.42289606  0.52638096  1
  C  C222  1  0.79593106  0.42290050  0.54888674  1
  C  C223  1  0.77206379  0.42289250  0.52676914  1
  C  C224  1  0.74583792  0.42494025  0.46982632  1
  C  C225  1  0.74581027  0.42494980  0.53922057  1
  C  C226  1  0.80152082  0.42455711  0.59043154  1
  C  C227  1  0.83883839  0.42454236  0.55531195  1
  C  C228  1  0.83886055  0.42444884  0.45316011  1
  C  C229  1  0.80153807  0.42441588  0.41835537  1
  C  C230  1  0.42019296  0.82246043  0.48208437  1
  C  C231  1  0.42017760  0.82251247  0.52622036  1
  C  C232  1  0.42017208  0.79854583  0.54861826  1
  C  C233  1  0.42024418  0.77461884  0.52636080  1
  C  C234  1  0.42025979  0.77455861  0.48179200  1
  C  C235  1  0.42019786  0.79845277  0.45962218  1
  C  C236  1  0.42180288  0.84139184  0.45308634  1
  C  C237  1  0.42179610  0.80403652  0.41804849  1
  C  C238  1  0.42247917  0.74822443  0.46933255  1
  C  C239  1  0.42244045  0.74832288  0.53873604  1
  C  C240  1  0.42176232  0.80419526  0.59018945  1
  C  C241  1  0.42177477  0.84149425  0.55524484  1
  C  C242  1  0.45005558  0.53523820  0.50044577  1
  C  C243  1  0.42454613  0.54612554  0.49838621  1
  C  C244  1  0.39699513  0.55784431  0.49921283  1
  C  C245  1  0.37140287  0.56895584  0.50151025  1
  C  C246  1  0.34379787  0.58020190  0.50303797  1
  C  C247  1  0.31795392  0.59023647  0.50421761  1
  C  C248  1  0.53655401  0.45379886  0.49901822  1
  C  C249  1  0.54675687  0.42817945  0.49864565  1
  C  C250  1  0.55708135  0.40054834  0.50025342  1
  C  C251  1  0.56681385  0.37489198  0.50222451  1
  C  C252  1  0.57714013  0.34725392  0.50355051  1
  C  C253  1  0.58678317  0.32139533  0.50476840  1
  C  C254  1  0.56852955  0.48902910  0.50826826  1
  C  C255  1  0.59403529  0.47805348  0.51032387  1
  C  C256  1  0.62158058  0.46622515  0.50948493  1
  C  C257  1  0.64716714  0.45504228  0.50713674  1
  C  C258  1  0.67477369  0.44381221  0.50558701  1
  C  C259  1  0.70061961  0.43384805  0.50439562  1
  C  C260  1  0.48202126  0.57053025  0.50959041  1
  C  C261  1  0.47181528  0.59615078  0.50990348  1
  C  C262  1  0.46148732  0.62378113  0.50823796  1
  C  C263  1  0.45175244  0.64943664  0.50621415  1
  C  C264  1  0.44143177  0.67707600  0.50489220  1
  C  C265  1  0.43179368  0.70293610  0.50367713  1
  C  C266  1  0.09835058  0.55115821  0.81719229  1
  C  C267  1  0.11085487  0.55747276  0.78950147  1
  C  C268  1  0.12487490  0.56554237  0.75796464  1
  C  C269  1  0.13962974  0.58313834  0.76497297  1
  C  C270  1  0.15278215  0.59070814  0.73306807  1
  C  C271  1  0.15205425  0.58109740  0.69254474  1
  C  C272  1  0.13717838  0.56359698  0.68566731  1
  C  C273  1  0.12406987  0.55600019  0.71739118  1
  C  C274  1  0.16589967  0.58836579  0.65943433  1
  C  C275  1  0.17803775  0.59373482  0.63003131  1
  C  C276  1  0.54691567  0.10297679  0.81789480  1
  C  C277  1  0.55417197  0.11474970  0.79020617  1
  C  C278  1  0.56289909  0.12796199  0.75828873  1
  C  C279  1  0.58023173  0.14301167  0.76512892  1
  C  C280  1  0.58780774  0.15610431  0.73314999  1
  C  C281  1  0.57864382  0.15489127  0.69254928  1
  C  C282  1  0.56189632  0.13922679  0.68567490  1
  C  C283  1  0.55433649  0.12613712  0.71746525  1
  C  C284  1  0.58568969  0.16890592  0.65944650  1
  C  C285  1  0.59085759  0.18121529  0.63010677  1
  C  C286  1  0.92063671  0.47171501  0.19057818  1
  C  C287  1  0.90848073  0.46543601  0.21878476  1
  C  C288  1  0.89444817  0.45762668  0.25059181  1
  C  C289  1  0.90565428  0.43088095  0.26857653  1
  C  C290  1  0.89203881  0.42363791  0.30015026  1
  C  C291  1  0.86634953  0.44256043  0.31540450  1
  C  C292  1  0.85483688  0.46903970  0.29666649  1
  C  C293  1  0.86839533  0.47632947  0.26513035  1
  C  C294  1  0.85254967  0.43551246  0.34878755  1
  C  C295  1  0.84049760  0.43027776  0.37841201  1
  C  C296  1  0.47194816  0.92041332  0.18962416  1
  C  C297  1  0.46474515  0.90893329  0.21775240  1
  C  C298  1  0.45597904  0.89593673  0.24992666  1
  C  C299  1  0.42775760  0.90022556  0.25703607  1
  C  C300  1  0.42024259  0.88701679  0.28895106  1
  C  C301  1  0.44036486  0.86877012  0.31553490  1
  C  C302  1  0.46855482  0.86451003  0.30825735  1
  C  C303  1  0.47610591  0.87763639  0.27650971  1
  C  C304  1  0.43301628  0.85511320  0.34881127  1
  C  C305  1  0.42765900  0.84305393  0.37829808  1
  C  C306  1  0.54569458  0.10430058  0.19003652  1
  C  C307  1  0.55277701  0.11588171  0.21817948  1
  C  C308  1  0.56178053  0.12881727  0.25017370  1
  C  C309  1  0.56984956  0.11559362  0.28868891  1
  C  C310  1  0.57784245  0.12850346  0.32037235  1
  C  C311  1  0.57849445  0.15532112  0.31548850  1
  C  C312  1  0.57148268  0.16803747  0.27648278  1
  C  C313  1  0.56350422  0.15515184  0.24471724  1
  C  C314  1  0.58561898  0.16911668  0.34882170  1
  C  C315  1  0.59082836  0.18125109  0.37838044  1
  C  C316  1  0.09825363  0.55272551  0.19013336  1
  C  C317  1  0.11039947  0.55905358  0.21825455  1
  C  C318  1  0.12434960  0.56681535  0.25017468  1
  C  C319  1  0.12534252  0.59365469  0.25251697  1
  C  C320  1  0.13877867  0.60077626  0.28443714  1
  C  C321  1  0.15219827  0.58150878  0.31564844  1
  C  C322  1  0.15145782  0.55458310  0.31293914  1
  C  C323  1  0.13805731  0.54742710  0.28115824  1
  C  C324  1  0.16601495  0.58863218  0.34888765  1
  C  C325  1  0.17813269  0.59389305  0.37835341  1
  C  C326  1  0.92041125  0.47278431  0.81711344  1
  C  C327  1  0.90795053  0.46645726  0.78942181  1
  C  C328  1  0.89389548  0.45845538  0.75789460  1
  C  C329  1  0.88417585  0.43655561  0.76248036  1
  C  C330  1  0.87092409  0.42912587  0.73060150  1
  C  C331  1  0.86643728  0.44318624  0.69250258  1
  C  C332  1  0.87610626  0.46513309  0.68811126  1
  C  C333  1  0.88930504  0.47259617  0.71982463  1
  C  C334  1  0.85259743  0.43591563  0.65942759  1
  C  C335  1  0.84045929  0.43054988  0.63007289  1
  C  C336  1  0.47218764  0.92165244  0.81709901  1
  C  C337  1  0.46497865  0.90987169  0.78934699  1
  C  C338  1  0.45608389  0.89657529  0.75771434  1
  C  C339  1  0.44587745  0.91037699  0.72017849  1
  C  C340  1  0.43806984  0.89719454  0.68865512  1
  C  C341  1  0.43971136  0.86949578  0.69275782  1
  C  C342  1  0.44885259  0.85612372  0.73088100  1
  C  C343  1  0.45667971  0.86927016  0.76247719  1
  C  C344  1  0.43274072  0.85551808  0.65950260  1
  C  C345  1  0.42763971  0.84325576  0.63000707  1
  N  N346  1  0.19055708  0.59797292  0.41236714  1
  N  N347  1  0.29067334  0.59649289  0.50410002  1
  N  N348  1  0.19041971  0.59793177  0.59598708  1
  N  N349  1  0.59323469  0.29404820  0.50453828  1
  N  N350  1  0.59496651  0.19366768  0.59610361  1
  N  N351  1  0.59501218  0.19365291  0.41242115  1
  N  N352  1  0.72788545  0.42768635  0.50454437  1
  N  N353  1  0.82805841  0.42635937  0.59610055  1
  N  N354  1  0.82807573  0.42618635  0.41247627  1
  N  N355  1  0.42357075  0.83060117  0.41230890  1
  N  N356  1  0.42534015  0.73028457  0.50399422  1
  N  N357  1  0.42351994  0.83078122  0.59599474  1
  O  O358  1  0.48037713  0.51969705  0.55714385  1
  O  O359  1  0.53823983  0.50462521  0.45154771  1
