# generated using pymatgen
data_MnH121C165S2(N2O)6
_symmetry_space_group_name_H-M   'P 1'
_cell_length_a   75.79831717
_cell_length_b   75.77861323
_cell_length_c   41.75523901
_cell_angle_alpha   90.05860096
_cell_angle_beta   90.07010103
_cell_angle_gamma   76.78523655
_symmetry_Int_Tables_number   1
_chemical_formula_structural   MnH121C165S2(N2O)6
_chemical_formula_sum   'Mn2 H242 C330 S4 N24 O12'
_cell_volume   233486.42279735
_cell_formula_units_Z   2
loop_
 _symmetry_equiv_pos_site_id
 _symmetry_equiv_pos_as_xyz
  1  'x, y, z'
loop_
 _atom_site_type_symbol
 _atom_site_label
 _atom_site_symmetry_multiplicity
 _atom_site_fract_x
 _atom_site_fract_y
 _atom_site_fract_z
 _atom_site_occupancy
  Mn  Mn0  1  0.00288972  0.50172866  0.00196776  1
  Mn  Mn1  1  0.50307868  0.00186560  0.00250972  1
  H  H2  1  0.02260839  0.54497316  0.91930090  1
  H  H3  1  0.05466096  0.48995416  0.91559145  1
  H  H4  1  0.00532830  0.53574073  0.96393939  1
  H  H5  1  0.03500909  0.48227753  0.95816730  1
  H  H6  1  0.98323270  0.45861026  0.91834986  1
  H  H7  1  0.95106694  0.51357162  0.91530907  1
  H  H8  1  1.00050814  0.46775982  0.96324111  1
  H  H9  1  0.97081072  0.52119346  0.95795164  1
  H  H10  1  0.01614270  0.53539864  0.02105903  1
  H  H11  1  0.03431700  0.54526738  0.06423358  1
  H  H12  1  0.04436317  0.49080619  0.10227230  1
  H  H13  1  0.02425725  0.48361262  0.05973501  1
  H  H14  1  0.02230698  0.46277932  0.02925255  1
  H  H15  1  0.99012430  0.46790809  0.02159264  1
  H  H16  1  0.97312215  0.45774044  0.06609950  1
  H  H17  1  0.95944301  0.51324595  0.09952576  1
  H  H18  1  0.98101977  0.52002205  0.05927290  1
  H  H19  1  0.98375379  0.54064908  0.02959236  1
  H  H20  1  0.49206627  0.05465966  0.91793685  1
  H  H21  1  0.54491418  0.01763734  0.91505280  1
  H  H22  1  0.48415806  0.03581673  0.96108231  1
  H  H23  1  0.53583024  0.00209230  0.96098491  1
  H  H24  1  0.51366458  0.94918409  0.91738131  1
  H  H25  1  0.45919722  0.98337103  0.92132675  1
  H  H26  1  0.52167987  0.96764985  0.96122103  1
  H  H27  1  0.47020637  1.00179924  0.96087257  1
  H  H28  1  0.49039575  0.04190005  0.02483483  1
  H  H29  1  0.49664367  0.06127283  0.06938506  1
  H  H30  1  0.54009533  0.01664721  0.09879317  1
  H  H31  1  0.52884266  -0.00235379  0.05856676  1
  H  H32  1  0.53983615  0.97696511  0.03012876  1
  H  H33  1  0.51561818  0.96168813  0.02466501  1
  H  H34  1  0.50918339  0.94246595  0.06916677  1
  H  H35  1  0.46592161  0.98738201  0.09818111  1
  H  H36  1  0.47710118  0.00614159  0.05759402  1
  H  H37  1  0.46618955  0.02638757  0.03037294  1
  H  H38  1  0.46323795  0.50696059  0.53990335  1
  H  H39  1  0.46609791  0.52962092  0.53922325  1
  H  H40  1  0.50811656  0.54293872  0.52845635  1
  H  H41  1  0.47854035  0.48526433  0.49653414  1
  H  H42  1  0.51611578  0.46537100  0.45147714  1
  H  H43  1  0.49715311  0.46128948  0.47225650  1
  H  H44  1  0.48920558  0.53898486  0.54949198  1
  H  H45  1  0.52650787  0.51900352  0.50485812  1
  H  H46  1  0.54188267  0.49715640  0.46095991  1
  H  H47  1  0.53901742  0.47449804  0.46229481  1
  H  H48  1  0.13673725  0.59300940  0.29358363  1
  H  H49  1  0.13410717  0.55487297  0.31637030  1
  H  H50  1  0.15168194  0.54159459  0.35860228  1
  H  H51  1  0.17103259  0.54248005  0.40542784  1
  H  H52  1  0.16908459  0.59898386  0.38727633  1
  H  H53  1  0.14968103  0.59817793  0.33985180  1
  H  H54  1  0.19316328  0.54518384  0.43491401  1
  H  H55  1  0.17187934  0.55311570  0.45373813  1
  H  H56  1  0.15697902  0.57826269  0.52365086  1
  H  H57  1  0.16154796  0.55675949  0.50521864  1
  H  H58  1  0.15733093  0.57664382  0.48147797  1
  H  H59  1  0.21496499  0.55385099  0.42328006  1
  H  H60  1  0.22971420  0.53894940  0.44931367  1
  H  H61  1  0.23435751  0.55998266  0.43812913  1
  H  H62  1  0.21322161  0.59035709  0.57172373  1
  H  H63  1  0.22852302  0.59439877  0.54197532  1
  H  H64  1  0.23260526  0.57346653  0.56243887  1
  H  H65  1  0.24797975  0.56474718  0.51957372  1
  H  H66  1  0.24767773  0.55978048  0.47784820  1
  H  H67  1  0.27214832  0.55975085  0.49493177  1
  H  H68  1  0.30297931  0.56242613  0.49823122  1
  H  H69  1  0.28556435  0.62070597  0.48421144  1
  H  H70  1  0.25377233  0.61757167  0.48126758  1
  H  H71  1  0.32002728  0.60520276  0.49041163  1
  H  H72  1  0.32492726  0.56434132  0.50697662  1
  H  H73  1  0.18737418  0.59845297  0.56382234  1
  H  H74  1  0.16790208  0.59077038  0.55284513  1
  H  H75  1  0.16651823  0.60684753  0.59867823  1
  H  H76  1  0.14403739  0.61334898  0.64189959  1
  H  H77  1  0.15732294  0.55635781  0.66774007  1
  H  H78  1  0.18021134  0.55046509  0.62540466  1
  H  H79  1  0.12669798  0.60268355  0.68585951  1
  H  H80  1  0.14480660  0.56362460  0.70671033  1
  H  H81  1  0.56803447  0.14316617  0.30202197  1
  H  H82  1  0.60846438  0.12356818  0.30914960  1
  H  H83  1  0.62400875  0.13496601  0.35338991  1
  H  H84  1  0.62388958  0.15416429  0.40077276  1
  H  H85  1  0.56659523  0.17610451  0.38879171  1
  H  H86  1  0.56633165  0.15690319  0.34174975  1
  H  H87  1  0.62082418  0.17792994  0.43323802  1
  H  H88  1  0.61394829  0.15964155  0.45212508  1
  H  H89  1  0.58789609  0.15585371  0.52185554  1
  H  H90  1  0.60965012  0.15059901  0.50450689  1
  H  H91  1  0.59008764  0.15545169  0.47981086  1
  H  H92  1  0.61271230  0.20381924  0.42328619  1
  H  H93  1  0.62690080  0.21274877  0.44949396  1
  H  H94  1  0.60517330  0.22571971  0.43900232  1
  H  H95  1  0.57644793  0.21684286  0.57193755  1
  H  H96  1  0.57190223  0.23390870  0.54203242  1
  H  H97  1  0.59272273  0.22930308  0.56286858  1
  H  H98  1  0.60199142  0.24079478  0.52127358  1
  H  H99  1  0.60857427  0.23785359  0.48042744  1
  H  H100  1  0.60620653  0.26402482  0.49530046  1
  H  H101  1  0.59989268  0.29698969  0.49916965  1
  H  H102  1  0.54284787  0.29984707  0.48295956  1
  H  H103  1  0.54932450  0.26614407  0.48014160  1
  H  H104  1  0.55254953  0.32737559  0.49025008  1
  H  H105  1  0.59350038  0.32570534  0.50211793  1
  H  H106  1  0.56847025  0.19447160  0.56324935  1
  H  H107  1  0.57660451  0.17160891  0.55199789  1
  H  H108  1  0.55990324  0.17705283  0.59510469  1
  H  H109  1  0.55234425  0.15763184  0.63739330  1
  H  H110  1  0.60739030  0.14770071  0.67269698  1
  H  H111  1  0.61504952  0.16663688  0.62903160  1
  H  H112  1  0.55933436  0.13879087  0.68068946  1
  H  H113  1  0.59860148  0.12861242  0.70645978  1
  H  H114  1  0.86124439  0.43514772  0.70223022  1
  H  H115  1  0.88398460  0.39654828  0.68875348  1
  H  H116  1  0.87135737  0.38036923  0.64729909  1
  H  H117  1  0.85199144  0.38005104  0.60027672  1
  H  H118  1  0.82982963  0.43738977  0.61114181  1
  H  H119  1  0.84958494  0.43809966  0.65756220  1
  H  H120  1  0.82844585  0.38279958  0.56711178  1
  H  H121  1  0.84673990  0.38979587  0.54849529  1
  H  H122  1  0.85049653  0.41579419  0.47844260  1
  H  H123  1  0.85577400  0.39400868  0.49573108  1
  H  H124  1  0.85096275  0.41355521  0.52049121  1
  H  H125  1  0.80260313  0.39076936  0.57690760  1
  H  H126  1  0.79363226  0.37662880  0.55066611  1
  H  H127  1  0.78073092  0.39839145  0.56116917  1
  H  H128  1  0.78962930  0.42724946  0.42835402  1
  H  H129  1  0.77258318  0.43186972  0.45823902  1
  H  H130  1  0.77708918  0.41104621  0.43738769  1
  H  H131  1  0.76562164  0.40177539  0.47894969  1
  H  H132  1  0.76863582  0.39500177  0.51971722  1
  H  H133  1  0.74260332  0.39760576  0.50512035  1
  H  H134  1  0.70966130  0.40408339  0.50109258  1
  H  H135  1  0.70710414  0.46112048  0.51720807  1
  H  H136  1  0.74080845  0.45446824  0.52007655  1
  H  H137  1  0.67954413  0.45158493  0.50998143  1
  H  H138  1  0.68093430  0.41067759  0.49815828  1
  H  H139  1  0.81182536  0.43540201  0.43744451  1
  H  H140  1  0.83473366  0.42715988  0.44828443  1
  H  H141  1  0.82892466  0.44402311  0.40537531  1
  H  H142  1  0.84820677  0.45165047  0.36286539  1
  H  H143  1  0.85808993  0.39659797  0.32756002  1
  H  H144  1  0.83939243  0.38882956  0.37148798  1
  H  H145  1  0.86548620  0.44491020  0.31647133  1
  H  H146  1  0.87769112  0.40469337  0.29618534  1
  H  H147  1  0.41029165  0.87444301  0.69884904  1
  H  H148  1  0.45132363  0.86804292  0.68499491  1
  H  H149  1  0.46386088  0.85161786  0.64185328  1
  H  H150  1  0.46287478  0.83234518  0.59498423  1
  H  H151  1  0.40637831  0.83449303  0.61323246  1
  H  H152  1  0.40734427  0.85362008  0.66096738  1
  H  H153  1  0.46004782  0.80996498  0.56586113  1
  H  H154  1  0.45235517  0.83116197  0.54661827  1
  H  H155  1  0.42724654  0.84604533  0.47671355  1
  H  H156  1  0.44875871  0.84146985  0.49506580  1
  H  H157  1  0.42890455  0.84574982  0.51886344  1
  H  H158  1  0.45162834  0.78796638  0.57720742  1
  H  H159  1  0.46643232  0.77323131  0.55103438  1
  H  H160  1  0.44540773  0.76861890  0.56229060  1
  H  H161  1  0.41532531  0.78977815  0.42854953  1
  H  H162  1  0.41123734  0.77445201  0.45824462  1
  H  H163  1  0.43219718  0.77038598  0.43791771  1
  H  H164  1  0.44090123  0.75500426  0.48075315  1
  H  H165  1  0.44576487  0.75523695  0.52250224  1
  H  H166  1  0.44589882  0.73056318  0.50501425  1
  H  H167  1  0.44322819  0.69966611  0.50196577  1
  H  H168  1  0.38500848  0.71707233  0.51608285  1
  H  H169  1  0.38812157  0.74888883  0.51894061  1
  H  H170  1  0.40043520  0.68264795  0.51002820  1
  H  H171  1  0.44126703  0.67756762  0.49327717  1
  H  H172  1  0.40726334  0.81565151  0.43635706  1
  H  H173  1  0.41483120  0.83513319  0.44767815  1
  H  H174  1  0.39854688  0.83665243  0.40240439  1
  H  H175  1  0.39141290  0.85901056  0.35911351  1
  H  H176  1  0.44816342  0.84690827  0.33248206  1
  H  H177  1  0.45468916  0.82349423  0.37414149  1
  H  H178  1  0.40170665  0.87634082  0.31369343  1
  H  H179  1  0.43955993  0.85632444  0.29015171  1
  H  H180  1  0.04504372  0.54948373  0.81948643  1
  H  H181  1  0.02788319  0.53629996  0.85977750  1
  H  H182  1  0.07727725  0.51532034  0.91190531  1
  H  H183  1  0.09413476  0.52976461  0.87302300  1
  H  H184  1  0.07620877  0.57487066  0.74625725  1
  H  H185  1  0.09483901  0.58662913  0.70686927  1
  H  H186  1  0.14217832  0.56617809  0.76461844  1
  H  H187  1  0.12332709  0.55504211  0.80463573  1
  H  H188  1  0.51267612  0.08665955  0.83955579  1
  H  H189  1  0.50062836  0.06864022  0.87914198  1
  H  H190  1  0.55494543  0.03670708  0.89570672  1
  H  H191  1  0.56617563  0.05324261  0.85295859  1
  H  H192  1  0.53660756  0.11799381  0.76682046  1
  H  H193  1  0.54910408  0.13599979  0.72775230  1
  H  H194  1  0.60244301  0.10189119  0.74291678  1
  H  H195  1  0.58983861  0.08448700  0.78320845  1
  H  H196  1  0.96025325  0.44691137  0.17180697  1
  H  H197  1  0.97743901  0.45998464  0.13117287  1
  H  H198  1  0.92775408  0.49493188  0.09794208  1
  H  H199  1  0.91047463  0.48076121  0.13668392  1
  H  H200  1  0.92939491  0.42252080  0.24338268  1
  H  H201  1  0.91183766  0.40941900  0.28279550  1
  H  H202  1  0.86257859  0.44494798  0.24854537  1
  H  H203  1  0.88013063  0.45687801  0.20763375  1
  H  H204  1  0.49169956  0.92391762  0.17494457  1
  H  H205  1  0.50500378  0.94052919  0.13402991  1
  H  H206  1  0.45207824  0.96050735  0.09287778  1
  H  H207  1  0.43896923  0.94279017  0.13247104  1
  H  H208  1  0.46885347  0.89557716  0.24496252  1
  H  H209  1  0.45842849  0.87790624  0.28773938  1
  H  H210  1  0.40406194  0.89270937  0.25023413  1
  H  H211  1  0.41447846  0.91072444  0.20819143  1
  H  H212  1  0.51744470  0.07145353  0.18550216  1
  H  H213  1  0.50374587  0.05499181  0.14478447  1
  H  H214  1  0.55057376  0.05126722  0.08468384  1
  H  H215  1  0.56358679  0.06914958  0.12433537  1
  H  H216  1  0.54083490  0.10079624  0.25631140  1
  H  H217  1  0.55242457  0.11813404  0.29828824  1
  H  H218  1  0.59998452  0.11746607  0.24139417  1
  H  H219  1  0.58805559  0.10062203  0.19931280  1
  H  H220  1  0.08870186  0.54451361  0.11596546  1
  H  H221  1  0.07084908  0.53140040  0.07638880  1
  H  H222  1  0.03641985  0.52014980  0.15215029  1
  H  H223  1  0.05334878  0.53463682  0.19119924  1
  H  H224  1  0.11927438  0.56953776  0.18893514  1
  H  H225  1  0.13607678  0.58252499  0.22991043  1
  H  H226  1  0.10004668  0.57051751  0.30265894  1
  H  H227  1  0.08250014  0.55894732  0.26109353  1
  H  H228  1  0.91165756  0.47177616  0.87560366  1
  H  H229  1  0.92876780  0.48605927  0.91435554  1
  H  H230  1  0.97674260  0.46943082  0.85667474  1
  H  H231  1  0.95916239  0.45666105  0.81647399  1
  H  H232  1  0.88148960  0.44645184  0.80360279  1
  H  H233  1  0.86375645  0.43470866  0.76254343  1
  H  H234  1  0.91161810  0.41888693  0.70418124  1
  H  H235  1  0.92884818  0.43187097  0.74421530  1
  H  H236  1  0.44129206  0.95503294  0.84374952  1
  H  H237  1  0.45434538  0.97396345  0.88006905  1
  H  H238  1  0.50278441  0.93104131  0.88836567  1
  H  H239  1  0.49057932  0.91360347  0.84778559  1
  H  H240  1  0.41688069  0.92343182  0.77289727  1
  H  H241  1  0.40503170  0.90533087  0.73251903  1
  H  H242  1  0.45502556  0.86441973  0.73744736  1
  H  H243  1  0.46679287  0.88269418  0.77741831  1
  C  C244  1  0.04052088  0.51835604  0.91382349  1
  C  C245  1  0.02589852  0.53088652  0.92730057  1
  C  C246  1  0.04407772  0.50065586  0.92593432  1
  C  C247  1  0.01629067  0.52575084  0.95255068  1
  C  C248  1  0.03303023  0.49626279  0.94990901  1
  C  C249  1  0.96511280  0.48515886  0.91346560  1
  C  C250  1  0.97987151  0.47265723  0.92658679  1
  C  C251  1  0.96168486  0.50286653  0.92555544  1
  C  C252  1  0.98952496  0.47775715  0.95191628  1
  C  C253  1  0.97278833  0.50722781  0.94955258  1
  C  C254  1  0.02261098  0.52588014  0.03944881  1
  C  C255  1  0.03313280  0.53118976  0.06315161  1
  C  C256  1  0.04113224  0.51878820  0.08680074  1
  C  C257  1  0.03793535  0.50133568  0.08543807  1
  C  C258  1  0.02719798  0.49701563  0.06097661  1
  C  C259  1  0.98377163  0.47740941  0.04009726  1
  C  C260  1  0.97413034  0.47186325  0.06485786  1
  C  C261  1  0.96458799  0.48469064  0.08653439  1
  C  C262  1  0.96630054  0.50260088  0.08325565  1
  C  C263  1  0.97797865  0.50665486  0.06018548  1
  C  C264  1  0.52024471  0.03940776  0.91435340  1
  C  C265  1  0.50252443  0.04339894  0.92696324  1
  C  C266  1  0.53189983  0.02356541  0.92617676  1
  C  C267  1  0.49794714  0.03283509  0.95145989  1
  C  C268  1  0.52646882  0.01404337  0.95130314  1
  C  C269  1  0.48541069  0.96424845  0.91461162  1
  C  C270  1  0.50318059  0.96020992  0.92706854  1
  C  C271  1  0.47348257  0.97947116  0.92790837  1
  C  C272  1  0.50789342  0.97075416  0.95153139  1
  C  C273  1  0.47941198  0.98963559  0.95158005  1
  C  C274  1  0.50092258  0.03653667  0.04239132  1
  C  C275  1  0.50474454  0.04744775  0.06706047  1
  C  C276  1  0.51950733  0.04082485  0.08730798  1
  C  C277  1  0.52882253  0.02275962  0.08311780  1
  C  C278  1  0.52289359  0.01212883  0.06024069  1
  C  C279  1  0.50509692  0.96713477  0.04214986  1
  C  C280  1  0.50122467  0.95635044  0.06690790  1
  C  C281  1  0.48625882  0.96298857  0.08673569  1
  C  C282  1  0.47706191  0.98111439  0.08237162  1
  C  C283  1  0.48306796  0.99165128  0.05953832  1
  C  C284  1  0.50698374  0.48387462  0.49025098  1
  C  C285  1  0.53958740  0.48635009  0.47773906  1
  C  C286  1  0.49469144  0.53964431  0.52471207  1
  C  C287  1  0.46534169  0.51797209  0.52338452  1
  C  C288  1  0.48908780  0.49290681  0.49787857  1
  C  C289  1  0.48407833  0.51104427  0.50800680  1
  C  C290  1  0.52081694  0.49341154  0.49271915  1
  C  C291  1  0.49793303  0.52060836  0.51040138  1
  C  C292  1  0.51044886  0.46481794  0.47614619  1
  C  C293  1  0.51585378  0.51151486  0.50302063  1
  C  C294  1  0.13178629  0.58059834  0.29511022  1
  C  C295  1  0.13744556  0.56810798  0.31852941  1
  C  C296  1  0.14902717  0.56970721  0.34551464  1
  C  C297  1  0.15533602  0.55426007  0.36492864  1
  C  C298  1  0.16609933  0.55479437  0.39154265  1
  C  C299  1  0.17067244  0.57105473  0.39982473  1
  C  C300  1  0.16509372  0.58650412  0.38074460  1
  C  C301  1  0.15428349  0.58591567  0.35401698  1
  C  C302  1  0.18469598  0.55681145  0.44768316  1
  C  C303  1  0.19418439  0.56233824  0.47616849  1
  C  C304  1  0.21282098  0.56191847  0.47340937  1
  C  C305  1  0.22132644  0.56905594  0.49877714  1
  C  C306  1  0.21155877  0.57671693  0.52619624  1
  C  C307  1  0.19278983  0.57753564  0.52784117  1
  C  C308  1  0.18396777  0.57010768  0.50313331  1
  C  C309  1  0.16405509  0.57050644  0.50351913  1
  C  C310  1  0.22342266  0.55336505  0.44473507  1
  C  C311  1  0.22181318  0.58413290  0.55182421  1
  C  C312  1  0.24099886  0.56902280  0.49670814  1
  C  C313  1  0.26081802  0.58863790  0.48928810  1
  C  C314  1  0.27483100  0.57325575  0.49336068  1
  C  C315  1  0.29261234  0.57487956  0.49494551  1
  C  C316  1  0.29719270  0.59190071  0.49199062  1
  C  C317  1  0.28264498  0.60733919  0.48686844  1
  C  C318  1  0.26476794  0.60569117  0.48537524  1
  C  C319  1  0.31601223  0.59238535  0.49352147  1
  C  C320  1  0.32906195  0.57664652  0.49941296  1
  C  C321  1  0.18259454  0.58633045  0.55665108  1
  C  C322  1  0.17388288  0.57795128  0.60810324  1
  C  C323  1  0.16409104  0.59575113  0.61336683  1
  C  C324  1  0.15157003  0.59941292  0.63814343  1
  C  C325  1  0.14847344  0.58550570  0.65862407  1
  C  C326  1  0.15923513  0.56776043  0.65336028  1
  C  C327  1  0.17206721  0.56417660  0.62904592  1
  C  C328  1  0.13489699  0.58887574  0.68381919  1
  C  C329  1  0.13382090  0.57585130  0.70581332  1
  C  C330  1  0.58029700  0.13261147  0.29737914  1
  C  C331  1  0.59548119  0.13263237  0.31495272  1
  C  C332  1  0.59531839  0.14418460  0.34295718  1
  C  C333  1  0.61127883  0.14389398  0.36089651  1
  C  C334  1  0.61122361  0.15458219  0.38804706  1
  C  C335  1  0.59503048  0.16594043  0.39848336  1
  C  C336  1  0.57912691  0.16693717  0.38094514  1
  C  C337  1  0.57917911  0.15610489  0.35401071  1
  C  C338  1  0.60958111  0.17413571  0.44616662  1
  C  C339  1  0.60402757  0.18592479  0.47507849  1
  C  C340  1  0.60495050  0.20428408  0.47353426  1
  C  C341  1  0.59870717  0.21554278  0.49998358  1
  C  C342  1  0.59044524  0.20928414  0.52670138  1
  C  C343  1  0.58954656  0.19088166  0.52768600  1
  C  C344  1  0.59645203  0.17906173  0.50211227  1
  C  C345  1  0.59593385  0.15936706  0.50214361  1
  C  C346  1  0.61274817  0.21193740  0.44500177  1
  C  C347  1  0.58248830  0.22284274  0.55212163  1
  C  C348  1  0.59880500  0.23519216  0.49815958  1
  C  C349  1  0.57793394  0.26315550  0.48868809  1
  C  C350  1  0.59223600  0.27175672  0.49330660  1
  C  C351  1  0.58868503  0.29046675  0.49495061  1
  C  C352  1  0.57077410  0.30107606  0.49144870  1
  C  C353  1  0.55665917  0.29187840  0.48582162  1
  C  C354  1  0.56018709  0.27316186  0.48426580  1
  C  C355  1  0.56672492  0.32040894  0.49327804  1
  C  C356  1  0.57900725  0.33118835  0.49858464  1
  C  C357  1  0.58079556  0.18436163  0.55626264  1
  C  C358  1  0.58834253  0.17202253  0.60813317  1
  C  C359  1  0.57052203  0.17008979  0.61127305  1
  C  C360  1  0.56615495  0.15949646  0.63572074  1
  C  C361  1  0.57913750  0.15086052  0.65843056  1
  C  C362  1  0.59690460  0.15385341  0.65561466  1
  C  C363  1  0.60134618  0.16447959  0.63102038  1
  C  C364  1  0.57341900  0.13973862  0.68298196  1
  C  C365  1  0.58398685  0.12978743  0.70605803  1
  C  C366  1  0.87328384  0.42394589  0.70360229  1
  C  C367  1  0.87457441  0.40944401  0.68361829  1
  C  C368  1  0.86248613  0.40924039  0.65647985  1
  C  C369  1  0.86259302  0.39307760  0.63926982  1
  C  C370  1  0.85170241  0.39285150  0.61248162  1
  C  C371  1  0.84025603  0.40893848  0.60181429  1
  C  C372  1  0.83916558  0.42497575  0.61903897  1
  C  C373  1  0.85024099  0.42519987  0.64556350  1
  C  C374  1  0.83222185  0.39408456  0.55426708  1
  C  C375  1  0.82051466  0.39956001  0.52523722  1
  C  C376  1  0.80218619  0.39856031  0.52666831  1
  C  C377  1  0.79096684  0.40478505  0.50016794  1
  C  C378  1  0.79714666  0.41320368  0.47358376  1
  C  C379  1  0.81550946  0.41418739  0.47274637  1
  C  C380  1  0.82734316  0.40721197  0.49825595  1
  C  C381  1  0.84702369  0.40773201  0.49815815  1
  C  C382  1  0.79449308  0.39076863  0.55517243  1
  C  C383  1  0.78360291  0.42123049  0.44816851  1
  C  C384  1  0.77133154  0.40479650  0.50206653  1
  C  C385  1  0.74360124  0.42585761  0.51170797  1
  C  C386  1  0.73493084  0.41160382  0.50707119  1
  C  C387  1  0.71623917  0.41525077  0.50532903  1
  C  C388  1  0.70573266  0.43321441  0.50877163  1
  C  C389  1  0.71500751  0.44727828  0.51439322  1
  C  C390  1  0.73371463  0.44365524  0.51601646  1
  C  C391  1  0.68640975  0.43738224  0.50691475  1
  C  C392  1  0.67552666  0.42519650  0.50160343  1
  C  C393  1  0.82193464  0.42302904  0.44423070  1
  C  C394  1  0.83395843  0.41557358  0.39226564  1
  C  C395  1  0.83583970  0.43342687  0.38912653  1
  C  C396  1  0.84627281  0.43785827  0.36450245  1
  C  C397  1  0.85473013  0.42490776  0.34162559  1
  C  C398  1  0.85196575  0.40705955  0.34469786  1
  C  C399  1  0.84148393  0.40255806  0.36941510  1
  C  C400  1  0.86531782  0.43053712  0.31617410  1
  C  C401  1  0.87573069  0.41941434  0.29450250  1
  C  C402  1  0.42457535  0.87409058  0.70304064  1
  C  C403  1  0.43774947  0.86559485  0.68242485  1
  C  C404  1  0.43577551  0.85436791  0.65507303  1
  C  C405  1  0.45119725  0.84792614  0.63567213  1
  C  C406  1  0.45059372  0.83724117  0.60896366  1
  C  C407  1  0.43430568  0.83276096  0.60063805  1
  C  C408  1  0.41887807  0.83845011  0.61972860  1
  C  C409  1  0.41953405  0.84919222  0.64655664  1
  C  C410  1  0.44850775  0.81844338  0.55289128  1
  C  C411  1  0.44300477  0.80887376  0.52443585  1
  C  C412  1  0.44346291  0.79020711  0.52711840  1
  C  C413  1  0.43640201  0.78166555  0.50168016  1
  C  C414  1  0.42886297  0.79143825  0.47416347  1
  C  C415  1  0.42811758  0.81020579  0.47244116  1
  C  C416  1  0.43538933  0.81905917  0.49731456  1
  C  C417  1  0.43501286  0.83897830  0.49684896  1
  C  C418  1  0.45203971  0.77955141  0.55572103  1
  C  C419  1  0.42150960  0.78117701  0.44847127  1
  C  C420  1  0.43653174  0.76192945  0.50362765  1
  C  C421  1  0.41703759  0.74187964  0.51082950  1
  C  C422  1  0.43240930  0.72786404  0.50670789  1
  C  C423  1  0.43079328  0.71006001  0.50523761  1
  C  C424  1  0.41378324  0.70547379  0.50828563  1
  C  C425  1  0.39835874  0.72001590  0.51338596  1
  C  C426  1  0.40000098  0.73790096  0.51481238  1
  C  C427  1  0.41324582  0.68666268  0.50684287  1
  C  C428  1  0.42892139  0.67355102  0.50094851  1
  C  C429  1  0.41934597  0.82046489  0.44362707  1
  C  C430  1  0.42734038  0.82942952  0.39207713  1
  C  C431  1  0.40944755  0.83908465  0.38724154  1
  C  C432  1  0.40538774  0.85144313  0.36223701  1
  C  C433  1  0.41894493  0.85440497  0.34086350  1
  C  C434  1  0.43691365  0.84426281  0.34642870  1
  C  C435  1  0.44087669  0.83144904  0.37076945  1
  C  C436  1  0.41523123  0.86747893  0.31485362  1
  C  C437  1  0.42824235  0.86818732  0.29259951  1
  C  C438  1  0.41443787  0.54043370  0.49824090  1
  C  C439  1  0.38226603  0.55759921  0.49856567  1
  C  C440  1  0.43304885  0.53101126  0.49899744  1
  C  C441  1  0.44905573  0.52359653  0.50393767  1
  C  C442  1  0.36392027  0.56728373  0.49817993  1
  C  C443  1  0.34772307  0.57476643  0.49783589  1
  C  C444  1  0.54014306  0.41643545  0.50211479  1
  C  C445  1  0.55674154  0.38439944  0.50162410  1
  C  C446  1  0.53076101  0.43488198  0.50023674  1
  C  C447  1  0.52224061  0.45031896  0.49376244  1
  C  C448  1  0.56610689  0.36611519  0.50086092  1
  C  C449  1  0.57313660  0.34982053  0.49986367  1
  C  C450  1  0.59018305  0.46424814  0.50310126  1
  C  C451  1  0.62231038  0.44767893  0.50098652  1
  C  C452  1  0.57156164  0.47349875  0.50285143  1
  C  C453  1  0.55556665  0.48093303  0.49785611  1
  C  C454  1  0.64061426  0.43831300  0.50027169  1
  C  C455  1  0.65689837  0.43118818  0.50054286  1
  C  C456  1  0.46487675  0.58838865  0.49959049  1
  C  C457  1  0.44771690  0.62040322  0.50044074  1
  C  C458  1  0.47445207  0.56996505  0.50150300  1
  C  C459  1  0.48297728  0.55447435  0.50761234  1
  C  C460  1  0.43805032  0.63871941  0.50171139  1
  C  C461  1  0.43059692  0.65491943  0.50249194  1
  C  C462  1  0.07086721  0.54066059  0.84314852  1
  C  C463  1  0.05198853  0.54222586  0.84009479  1
  C  C464  1  0.04240726  0.53496791  0.86272213  1
  C  C465  1  0.05139682  0.52488170  0.88860283  1
  C  C466  1  0.07024453  0.52266614  0.89146882  1
  C  C467  1  0.07967131  0.53079954  0.86974986  1
  C  C468  1  0.08021340  0.54875993  0.82015025  1
  C  C469  1  0.08843417  0.55572842  0.80032214  1
  C  C470  1  0.09845577  0.56333450  0.77775979  1
  C  C471  1  0.09075842  0.57293147  0.75002368  1
  C  C472  1  0.10133346  0.57926388  0.72772003  1
  C  C473  1  0.12044169  0.57546795  0.73109769  1
  C  C474  1  0.12773313  0.56766536  0.76035365  1
  C  C475  1  0.11721310  0.56173680  0.78289610  1
  C  C476  1  0.54039494  0.07134596  0.84310159  1
  C  C477  1  0.52180856  0.07535605  0.85145634  1
  C  C478  1  0.51509408  0.06520929  0.87405043  1
  C  C479  1  0.52664642  0.05054924  0.88996791  1
  C  C480  1  0.54528732  0.04687698  0.88235660  1
  C  C481  1  0.55181672  0.05664799  0.85911544  1
  C  C482  1  0.54779253  0.08133211  0.82017614  1
  C  C483  1  0.55447119  0.08987560  0.80047012  1
  C  C484  1  0.56215281  0.09971688  0.77777757  1
  C  C485  1  0.55103560  0.11447441  0.76120298  1
  C  C486  1  0.55804699  0.12427825  0.73874275  1
  C  C487  1  0.57674501  0.11981566  0.73056992  1
  C  C488  1  0.58797779  0.10549135  0.74806648  1
  C  C489  1  0.58095349  0.09568899  0.77062377  1
  C  C490  1  0.93411063  0.46288025  0.15723383  1
  C  C491  1  0.95320366  0.45723504  0.15520981  1
  C  C492  1  0.96274271  0.46442442  0.13248368  1
  C  C493  1  0.95371125  0.47822800  0.11186539  1
  C  C494  1  0.93484962  0.48446172  0.11422226  1
  C  C495  1  0.92520461  0.47656211  0.13585565  1
  C  C496  1  0.92443909  0.45506317  0.18003085  1
  C  C497  1  0.91598828  0.44836397  0.19985640  1
  C  C498  1  0.90611112  0.44086312  0.22270631  1
  C  C499  1  0.91469894  0.42719854  0.24441410  1
  C  C500  1  0.90483851  0.41986636  0.26636669  1
  C  C501  1  0.88585770  0.42631079  0.26936041  1
  C  C502  1  0.87725137  0.44007382  0.24779144  1
  C  C503  1  0.88699286  0.44676423  0.22478044  1
  C  C504  1  0.46428783  0.93207651  0.15671787  1
  C  C505  1  0.48308115  0.93166298  0.15652371  1
  C  C506  1  0.49055308  0.94092027  0.13351420  1
  C  C507  1  0.47938007  0.95186733  0.11094112  1
  C  C508  1  0.46065332  0.95260277  0.11117225  1
  C  C509  1  0.45337848  0.94262748  0.13301690  1
  C  C510  1  0.45615650  0.92253847  0.17934482  1
  C  C511  1  0.44936339  0.91424735  0.19930169  1
  C  C512  1  0.44249641  0.90438544  0.22314773  1
  C  C513  1  0.45464058  0.89498699  0.24644186  1
  C  C514  1  0.44889173  0.88483868  0.26980237  1
  C  C515  1  0.43082946  0.88284153  0.27128380  1
  C  C516  1  0.41831505  0.89314855  0.24935280  1
  C  C517  1  0.42407736  0.90340345  0.22573277  1
  C  C518  1  0.54156951  0.07162274  0.15799714  1
  C  C519  1  0.52454009  0.06733166  0.16308325  1
  C  C520  1  0.51686196  0.05809759  0.14027135  1
  C  C521  1  0.52629826  0.05202382  0.11201802  1
  C  C522  1  0.54339515  0.05574797  0.10687641  1
  C  C523  1  0.55061915  0.06573388  0.12893840  1
  C  C524  1  0.54948062  0.08135710  0.18074031  1
  C  C525  1  0.55619965  0.08974569  0.20073691  1
  C  C526  1  0.56348809  0.09942016  0.22443436  1
  C  C527  1  0.55378430  0.10453837  0.25317855  1
  C  C528  1  0.56018902  0.11438636  0.27640975  1
  C  C529  1  0.57683424  0.11962737  0.27317164  1
  C  C530  1  0.58700365  0.11390367  0.24506520  1
  C  C531  1  0.58037691  0.10435895  0.22131779  1
  C  C532  1  0.07223735  0.54058713  0.15638992  1
  C  C533  1  0.07704618  0.53943056  0.12360313  1
  C  C534  1  0.06703312  0.53225656  0.10157844  1
  C  C535  1  0.05239015  0.52512117  0.11167790  1
  C  C536  1  0.04790358  0.52544420  0.14432224  1
  C  C537  1  0.05732499  0.53350530  0.16608089  1
  C  C538  1  0.08204102  0.54849206  0.17885174  1
  C  C539  1  0.09040566  0.55528397  0.19872728  1
  C  C540  1  0.09992429  0.56285793  0.22205648  1
  C  C541  1  0.11506096  0.57002524  0.21392931  1
  C  C542  1  0.12444918  0.57720836  0.23689881  1
  C  C543  1  0.12002646  0.57661304  0.26976291  1
  C  C544  1  0.10448437  0.57002895  0.27779263  1
  C  C545  1  0.09454788  0.56372215  0.25466152  1
  C  C546  1  0.93403844  0.46316156  0.84283277  1
  C  C547  1  0.92582961  0.47168033  0.87105093  1
  C  C548  1  0.93541942  0.47970332  0.89278125  1
  C  C549  1  0.95398350  0.47868723  0.88833104  1
  C  C550  1  0.96245925  0.46990827  0.86085364  1
  C  C551  1  0.95261150  0.46282928  0.83826950  1
  C  C552  1  0.92436568  0.45526836  0.81990433  1
  C  C553  1  0.91608581  0.44841014  0.79990438  1
  C  C554  1  0.90645206  0.44066660  0.77673482  1
  C  C555  1  0.88793453  0.44076310  0.78139197  1
  C  C556  1  0.87800168  0.43436441  0.75822048  1
  C  C557  1  0.88579804  0.42688896  0.72905363  1
  C  C558  1  0.90471237  0.42523869  0.72554850  1
  C  C559  1  0.91453914  0.43232766  0.74820904  1
  C  C560  1  0.46484345  0.93285913  0.84302667  1
  C  C561  1  0.45485906  0.94995831  0.85349451  1
  C  C562  1  0.46193354  0.96022236  0.87521288  1
  C  C563  1  0.47905210  0.95348976  0.88949791  1
  C  C564  1  0.48933772  0.93658673  0.87860888  1
  C  C565  1  0.48246441  0.92662909  0.85586409  1
  C  C566  1  0.45709749  0.92304985  0.82028010  1
  C  C567  1  0.45035733  0.91456512  0.80052741  1
  C  C568  1  0.44292604  0.90459619  0.77767579  1
  C  C569  1  0.42521231  0.91051841  0.76479115  1
  C  C570  1  0.41862001  0.90037820  0.74218156  1
  C  C571  1  0.42956802  0.88403034  0.72998347  1
  C  C572  1  0.44692075  0.87770127  0.74408711  1
  C  C573  1  0.45336459  0.88764226  0.76703115  1
  S  S574  1  0.02037904  0.47142470  0.00035635  1
  S  S575  1  0.98544346  0.53208453  0.00061342  1
  S  S576  1  0.53291412  0.98296133  0.00088562  1
  S  S577  1  0.47300020  0.02081545  0.00091335  1
  N  N578  1  0.01967582  0.50864947  0.96422594  1
  N  N579  1  0.98614637  0.49481885  0.96381459  1
  N  N580  1  0.01962584  0.50896628  0.03800549  1
  N  N581  1  0.98620889  0.49450792  0.03798249  1
  N  N582  1  0.50988175  0.01872795  0.96492767  1
  N  N583  1  0.49621612  0.98522943  0.96446006  1
  N  N584  1  0.50964836  0.01895349  0.03893540  1
  N  N585  1  0.49638473  0.98471059  0.03845883  1
  N  N586  1  0.40179661  0.53010087  0.49871621  1
  N  N587  1  0.38499119  0.53912890  0.49887304  1
  N  N588  1  0.39488147  0.56792089  0.49892983  1
  N  N589  1  0.41167212  0.55891950  0.49884910  1
  N  N590  1  0.55863455  0.41361498  0.50279858  1
  N  N591  1  0.56741717  0.39676980  0.50238506  1
  N  N592  1  0.53820688  0.38721549  0.50213390  1
  N  N593  1  0.52946227  0.40405582  0.50245016  1
  N  N594  1  0.59310110  0.44576911  0.50182455  1
  N  N595  1  0.60993412  0.43699573  0.50081783  1
  N  N596  1  0.61937640  0.46621312  0.50175395  1
  N  N597  1  0.60250148  0.47491928  0.50276500  1
  N  N598  1  0.44638764  0.59101366  0.49986664  1
  N  N599  1  0.43738284  0.60780020  0.50049571  1
  N  N600  1  0.46613722  0.61782802  0.49826478  1
  N  N601  1  0.47520503  0.60106933  0.49785729  1
  O  O602  1  0.18078204  0.57243600  0.42615000  1
  O  O603  1  0.18551968  0.57347678  0.58307128  1
  O  O604  1  0.24325665  0.58721404  0.48929251  1
  O  O605  1  0.59388950  0.17666889  0.42491628  1
  O  O606  1  0.59336476  0.18138641  0.58326470  1
  O  O607  1  0.58068568  0.24483019  0.48847754  1
  O  O608  1  0.82947254  0.40981387  0.57549208  1
  O  O609  1  0.82469210  0.41050510  0.41718985  1
  O  O610  1  0.76192056  0.42294666  0.51200531  1
  O  O611  1  0.43284738  0.82266095  0.57431001  1
  O  O612  1  0.43212479  0.81781101  0.41709487  1
  O  O613  1  0.41838629  0.75947576  0.51085574  1
