# generated using pymatgen
data_Zn3H152C189N3O22
_symmetry_space_group_name_H-M   'P 1'
_cell_length_a   57.44569983
_cell_length_b   54.47728512
_cell_length_c   34.56056920
_cell_angle_alpha   89.79179971
_cell_angle_beta   90.05813148
_cell_angle_gamma   127.03533218
_symmetry_Int_Tables_number   1
_chemical_formula_structural   Zn3H152C189N3O22
_chemical_formula_sum   'Zn3 H152 C189 N3 O22'
_cell_volume   86337.05005700
_cell_formula_units_Z   1
loop_
 _symmetry_equiv_pos_site_id
 _symmetry_equiv_pos_as_xyz
  1  'x, y, z'
loop_
 _atom_site_type_symbol
 _atom_site_label
 _atom_site_symmetry_multiplicity
 _atom_site_fract_x
 _atom_site_fract_y
 _atom_site_fract_z
 _atom_site_occupancy
  Zn  Zn0  1  0.71048570  0.35772690  0.46495103  1
  Zn  Zn1  1  0.71099340  0.35812434  0.57047847  1
  Zn  Zn2  1  0.66900675  0.35363240  0.51793579  1
  H  H3  1  0.10098576  0.06276058  0.04139693  1
  H  H4  1  0.07695613  0.02389388  0.05596577  1
  H  H5  1  0.02650989  -0.01028870  0.01262642  1
  H  H6  1  0.08460017  0.08782147  0.00630538  1
  H  H7  1  0.99250776  0.04152760  0.01624394  1
  H  H8  1  0.04918562  0.09580711  0.06741907  1
  H  H9  1  0.06981348  0.11729283  1.02660511  1
  H  H10  1  0.97305068  0.98685922  0.96780366  1
  H  H11  1  0.97846364  0.96455027  0.99789237  1
  H  H12  1  0.92992986  0.36218249  0.77537864  1
  H  H13  1  0.86770042  0.30420406  0.79623641  1
  H  H14  1  0.86073053  0.27346284  0.84973008  1
  H  H15  1  0.87870508  0.26158540  0.90588396  1
  H  H16  1  0.96656782  0.34088782  0.88034377  1
  H  H17  1  0.94867242  0.35295641  0.82371996  1
  H  H18  1  0.90185611  0.25008800  0.94302079  1
  H  H19  1  0.89911630  0.27776358  0.96455569  1
  H  H20  1  0.92458577  0.31875181  0.05236789  1
  H  H21  1  0.89621719  0.28776108  0.02495319  1
  H  H22  1  0.92540320  0.32134164  1.00117679  1
  H  H23  1  0.93593984  0.24955435  0.92572331  1
  H  H24  1  0.92201821  0.21722272  0.95615433  1
  H  H25  1  0.95956345  0.24201566  0.94420959  1
  H  H26  1  0.98929802  0.29557237  0.10698692  1
  H  H27  1  0.00750511  0.28885133  0.07195131  1
  H  H28  1  0.97580326  0.25772910  0.09529370  1
  H  H29  1  0.97340632  0.23406597  0.04382297  1
  H  H30  1  0.96623444  0.22820480  0.99333086  1
  H  H31  1  0.98472578  0.20803096  0.01801693  1
  H  H32  1  0.01459228  0.19058067  0.03064002  1
  H  H33  1  0.09225355  0.27996851  0.99871989  1
  H  H34  1  0.06328549  0.30003042  0.99811391  1
  H  H35  1  0.09290755  0.23201310  0.01342712  1
  H  H36  1  0.03171897  0.17611408  -0.01086130  1
  H  H37  1  0.98477239  0.32826831  0.09699589  1
  H  H38  1  0.95939756  0.33431602  0.08083671  1
  H  H39  1  0.97975205  0.35700733  0.13952645  1
  H  H40  1  0.97078899  0.37993874  0.19299200  1
  H  H41  1  0.89040875  0.29093125  0.22011140  1
  H  H42  1  0.90100602  0.26763591  0.16834269  1
  H  H43  1  0.93495242  0.37575429  0.24060106  1
  H  H44  1  0.89429338  0.31046785  0.27551546  1
  H  H45  1  0.45436541  0.15170906  0.26542994  1
  H  H46  1  0.47413876  0.11190852  0.24334044  1
  H  H47  1  0.44211287  0.07165577  0.19408669  1
  H  H48  1  0.40922775  0.05403290  0.13827795  1
  H  H49  1  0.40428471  0.12935695  0.15411814  1
  H  H50  1  0.43933884  0.14873201  0.20818854  1
  H  H51  1  0.36975679  0.03738207  0.09767936  1
  H  H52  1  0.40390715  0.06656309  0.07656839  1
  H  H53  1  0.42448950  0.10808916  0.98866926  1
  H  H54  1  0.41903709  0.07772384  0.01607818  1
  H  H55  1  0.42582041  0.11016220  0.03985754  1
  H  H56  1  0.33399800  0.03650241  0.11445212  1
  H  H57  1  0.31030285  0.00319366  0.08592422  1
  H  H58  1  0.30178121  0.02883991  0.09561100  1
  H  H59  1  0.33238755  0.08110628  0.93298602  1
  H  H60  1  0.30657195  0.07394358  0.96841774  1
  H  H61  1  0.30257628  0.04312048  0.94423392  1
  H  H62  1  0.27782220  0.01609536  0.99391873  1
  H  H63  1  0.27794153  0.00931316  0.04415799  1
  H  H64  1  0.23139131  -0.00901911  0.01794598  1
  H  H65  1  0.18249783  0.97828053  0.01973516  1
  H  H66  1  0.22049344  0.07344216  0.04101695  1
  H  H67  1  0.26995933  0.08642723  0.03892796  1
  H  H68  1  0.17526021  0.03663075  0.06800905  1
  H  H69  1  0.13332251  0.98200860  0.01495532  1
  H  H70  1  0.37323692  0.11432681  0.94384632  1
  H  H71  1  0.40612440  0.12189221  0.96004986  1
  H  H72  1  0.40901923  0.14486098  0.90412333  1
  H  H73  1  0.44442625  0.17253005  0.85118210  1
  H  H74  1  0.42805695  0.08764980  0.81409083  1
  H  H75  1  0.39312981  0.06025741  0.86810066  1
  H  H76  1  0.47200789  0.17472321  0.79855002  1
  H  H77  1  0.46150470  0.11467632  0.77032621  1
  H  H78  1  0.68375883  0.56563515  0.76976609  1
  H  H79  1  0.73816051  0.56917913  0.79186495  1
  H  H80  1  0.76602460  0.59679741  0.84608311  1
  H  H81  1  0.77620206  0.62769420  0.90403026  1
  H  H82  1  0.70315690  0.62837551  0.87721549  1
  H  H83  1  0.69245612  0.59672507  0.81916185  1
  H  H84  1  0.78665441  0.66395721  0.94100970  1
  H  H85  1  0.75972916  0.62825178  0.96335858  1
  H  H86  1  0.72002202  0.60723026  0.05073181  1
  H  H87  1  0.74866373  0.61263186  0.02351445  1
  H  H88  1  0.71804554  0.60575940  0.99950650  1
  H  H89  1  0.79181499  0.70285993  0.92493025  1
  H  H90  1  0.82225950  0.72478364  0.95613018  1
  H  H91  1  0.80125628  0.73761920  0.94396030  1
  H  H92  1  0.74879193  0.70629337  0.10577834  1
  H  H93  1  0.75831770  0.73502408  0.07088068  1
  H  H94  1  0.78567466  0.73544663  0.09492250  1
  H  H95  1  0.80997801  0.76094576  0.04377466  1
  H  H96  1  0.81596921  0.76015547  0.99348927  1
  H  H97  1  0.83879463  0.80366803  0.01709881  1
  H  H98  1  0.86055009  0.85715705  0.03399262  1
  H  H99  1  0.78144881  0.84404089  0.99993938  1
  H  H100  1  0.75631810  0.78776205  0.99774355  1
  H  H101  1  0.83141258  0.90017986  0.01649861  1
  H  H102  1  0.87815212  0.89280778  -0.00888831  1
  H  H103  1  0.71574668  0.66219509  0.09596168  1
  H  H104  1  0.70877957  0.62736317  0.08101642  1
  H  H105  1  0.68789009  0.62296252  0.14096054  1
  H  H106  1  0.66654788  0.58786151  0.19672147  1
  H  H107  1  0.75020214  0.60774526  0.22135211  1
  H  H108  1  0.77215657  0.64570549  0.16777631  1
  H  H109  1  0.67058658  0.55572572  0.24661113  1
  H  H110  1  0.73334637  0.59233550  0.27833063  1
  H  H111  1  0.76001010  0.38072252  0.37167392  1
  H  H112  1  0.75840966  0.37924799  0.66544550  1
  H  H113  1  0.87173925  0.34922791  0.64651919  1
  H  H114  1  0.83381615  0.34809422  0.60902272  1
  H  H115  1  0.79697264  0.35130701  0.71567175  1
  H  H116  1  0.83466914  0.35249715  0.75292516  1
  H  H117  1  0.55630074  0.23505813  0.28706385  1
  H  H118  1  0.59731084  0.27613232  0.32755821  1
  H  H119  1  0.56576282  0.21291955  0.42341215  1
  H  H120  1  0.52467604  0.17180747  0.38290690  1
  H  H121  1  0.55924036  0.23118171  0.75142384  1
  H  H122  1  0.60075748  0.27325757  0.71217835  1
  H  H123  1  0.56279598  0.21763730  0.60990375  1
  H  H124  1  0.52117038  0.17548815  0.64912034  1
  H  H125  1  0.70285988  0.52816886  0.39445577  1
  H  H126  1  0.70638474  0.49288180  0.43537550  1
  H  H127  1  0.69483286  0.44060453  0.33439090  1
  H  H128  1  0.69106170  0.47575383  0.29355268  1
  H  H129  1  0.72510041  0.53893271  0.64956668  1
  H  H130  1  0.72974493  0.50392205  0.61025269  1
  H  H131  1  0.67416697  0.43023943  0.69064264  1
  H  H132  1  0.66940637  0.46514235  0.72988364  1
  H  H133  1  0.83778622  0.30716920  0.36223446  1
  H  H134  1  0.80120644  0.30745420  0.40067158  1
  H  H135  1  0.83363912  0.39546168  0.35144052  1
  H  H136  1  0.86988726  0.39497015  0.31278549  1
  H  H137  1  0.02505804  0.11583087  0.05795930  1
  H  H138  1  0.00511968  0.08828626  0.02123530  1
  H  H139  1  0.04861299  0.13132635  0.97920466  1
  H  H140  1  0.05450283  0.16235931  0.05094803  1
  H  H141  1  0.08145317  0.17374805  0.01560156  1
  H  H142  1  0.02094935  0.13145745  0.99051509  1
  H  H143  1  0.12115998  0.05201472  -0.00443266  1
  H  H144  1  0.08747043  0.02528344  0.97215983  1
  H  H145  1  0.08367413  0.99087319  0.02977925  1
  H  H146  1  0.14473220  0.04358896  0.02192661  1
  H  H147  1  0.12585299  0.02247060  0.06388053  1
  H  H148  1  0.09973837  0.99459000  -0.01166879  1
  H  H149  1  0.94825798  0.99262032  0.02763690  1
  H  H150  1  0.94967882  0.96417986  0.05059708  1
  H  H151  1  0.92232097  0.95775550  0.97468760  1
  H  H152  1  0.89967474  0.93320698  0.05293641  1
  H  H153  1  0.89068241  0.95269732  0.02264308  1
  H  H154  1  0.92491789  0.93195999  0.99420535  1
  C  C155  1  0.97689387  0.98378488  0.99828704  1
  C  C156  1  0.08414021  0.03934949  0.03060731  1
  C  C157  1  0.05874644  0.03910560  0.01721123  1
  C  C158  1  0.03030041  0.01189318  0.01314055  1
  C  C159  1  0.00658262  0.01283146  0.00973501  1
  C  C160  1  0.01123739  0.04111428  0.01534943  1
  C  C161  1  0.03973089  0.06856666  0.01819756  1
  C  C162  1  0.06273009  0.06681282  0.01190924  1
  C  C163  1  0.04752909  0.09813455  0.03581338  1
  C  C164  1  0.90625357  0.34514153  0.77490227  1
  C  C165  1  0.89119666  0.32054884  0.80060320  1
  C  C166  1  0.90298319  0.31440288  0.83257091  1
  C  C167  1  0.88392302  0.28847068  0.85658297  1
  C  C168  1  0.89402096  0.28192962  0.88840182  1
  C  C169  1  0.92377116  0.30118465  0.89725986  1
  C  C170  1  0.94336201  0.32639282  0.87348798  1
  C  C171  1  0.93318315  0.33308249  0.84173925  1
  C  C172  1  0.91458502  0.27301479  0.95654860  1
  C  C173  1  0.93212645  0.27477133  0.99022122  1
  C  C174  1  0.94583916  0.26037185  0.98671431  1
  C  C175  1  0.96275547  0.26232169  0.01787586  1
  C  C176  1  0.96760649  0.27998758  0.05109969  1
  C  C177  1  0.95542763  0.29605439  0.05279856  1
  C  C178  1  0.93626250  0.29216035  0.02347322  1
  C  C179  1  0.92001875  0.30575656  0.02574215  1
  C  C180  1  0.94072117  0.24156276  0.95155704  1
  C  C181  1  0.98594243  0.28079649  0.08286769  1
  C  C182  1  0.97613847  0.24572789  0.01616544  1
  C  C183  1  0.02236924  0.25563181  0.00895062  1
  C  C184  1  0.00839490  0.22438068  0.01586228  1
  C  C185  1  0.02492102  0.21369442  0.01937728  1
  C  C186  1  0.05509233  0.23263559  0.01090599  1
  C  C187  1  0.06882990  0.26432852  0.00407885  1
  C  C188  1  0.05265286  0.27567471  0.00352380  1
  C  C189  1  0.06922889  0.21781902  0.01008273  1
  C  C190  1  0.05276268  0.18691151  0.00346795  1
  C  C191  1  0.96209580  0.31635147  0.08712117  1
  C  C192  1  0.93958558  0.31111571  0.14880902  1
  C  C193  1  0.95979021  0.34259394  0.15652925  1
  C  C194  1  0.95487189  0.35546012  0.18700890  1
  C  C195  1  0.92963720  0.33746216  0.21068996  1
  C  C196  1  0.91032778  0.30540833  0.20314520  1
  C  C197  1  0.91576692  0.29235330  0.17345918  1
  C  C198  1  0.92289104  0.35083621  0.24015324  1
  C  C199  1  0.90137283  0.33355739  0.26778846  1
  C  C200  1  0.46926300  0.14553699  0.26294357  1
  C  C201  1  0.46304910  0.12229140  0.23825733  1
  C  C202  1  0.44303170  0.11128319  0.20640261  1
  C  C203  1  0.43426989  0.08471782  0.18512676  1
  C  C204  1  0.41576538  0.07480710  0.15350397  1
  C  C205  1  0.40514602  0.09111124  0.14219299  1
  C  C206  1  0.41289607  0.11701473  0.16297665  1
  C  C207  1  0.43208764  0.12741917  0.19391762  1
  C  C208  1  0.38235342  0.06036765  0.08408750  1
  C  C209  1  0.36644189  0.06104528  0.04989625  1
  C  C210  1  0.33598028  0.04533377  0.05279171  1
  C  C211  1  0.32075931  0.04543054  0.02075976  1
  C  C212  1  0.33616952  0.06456280  0.98832354  1
  C  C213  1  0.36687636  0.08198127  0.98722079  1
  C  C214  1  0.38209970  0.07902541  0.01679419  1
  C  C215  1  0.41432382  0.09457284  0.01512598  1
  C  C216  1  0.31984375  0.02776414  0.08890878  1
  C  C217  1  0.31882503  0.06592888  0.95696941  1
  C  C218  1  0.28806849  0.02736006  0.02174990  1
  C  C219  1  0.25380550  0.03957677  0.02919105  1
  C  C220  1  0.22920656  0.00925704  0.02304507  1
  C  C221  1  0.20138203  0.00200700  0.02468524  1
  C  C222  1  0.19762720  0.02461271  0.03422436  1
  C  C223  1  0.22296349  0.05529721  0.03699235  1
  C  C224  1  0.25065687  0.06277717  0.03500444  1
  C  C225  1  0.17053649  0.02002775  0.04548871  1
  C  C226  1  0.14351491  1.00406155  0.02925226  1
  C  C227  1  0.38318534  0.10322012  0.95340750  1
  C  C228  1  0.40062488  0.10122704  0.89110474  1
  C  C229  1  0.41410343  0.13257066  0.88545370  1
  C  C230  1  0.43357303  0.14800104  0.85515723  1
  C  C231  1  0.44012110  0.13276678  0.82926476  1
  C  C232  1  0.42454148  0.10050426  0.83418300  1
  C  C233  1  0.40488385  0.08498436  0.86447229  1
  C  C234  1  0.46164776  0.15012393  0.79961138  1
  C  C235  1  0.47109048  0.13905456  0.77259203  1
  C  C236  1  0.70013882  0.56150555  0.76922398  1
  C  C237  1  0.72274204  0.57442147  0.79585472  1
  C  C238  1  0.72802402  0.59342079  0.82848292  1
  C  C239  1  0.75193326  0.60331644  0.85314570  1
  C  C240  1  0.75758657  0.62065287  0.88591887  1
  C  C241  1  0.73949350  0.62898659  0.89505458  1
  C  C242  1  0.71654724  0.62092414  0.87036733  1
  C  C243  1  0.71066470  0.60318083  0.83774846  1
  C  C244  1  0.76512743  0.65070454  0.95520846  1
  C  C245  1  0.76491266  0.66790470  0.98897289  1
  C  C246  1  0.78090841  0.70012717  0.98581010  1
  C  C247  1  0.78047811  0.71636381  0.01716535  1
  C  C248  1  0.76298692  0.70078330  0.05023889  1
  C  C249  1  0.74574353  0.66833146  0.05186995  1
  C  C250  1  0.74786094  0.65184977  0.02229710  1
  C  C251  1  0.73283126  0.61781546  0.02426810  1
  C  C252  1  0.79978439  0.71706542  0.95106920  1
  C  C253  1  0.76375480  0.72005004  0.08198497  1
  C  C254  1  0.79899088  0.75078989  0.01584569  1
  C  C255  1  0.79554635  0.79187088  0.00875703  1
  C  C256  1  0.82545917  0.81175781  0.01623739  1
  C  C257  1  0.83871613  0.84271894  0.02167590  1
  C  C258  1  0.82406575  0.85566683  0.01340685  1
  C  C259  1  0.79378059  0.83509909  0.00536664  1
  C  C260  1  0.77964699  0.80352128  1.00372257  1
  C  C261  1  0.84187062  0.88893656  0.01315337  1
  C  C262  1  0.87101128  0.90493266  0.00603607  1
  C  C263  1  0.72635180  0.65176802  0.08656825  1
  C  C264  1  0.73110426  0.63486568  0.14924691  1
  C  C265  1  0.70150911  0.61927748  0.15809930  1
  C  C266  1  0.68952287  0.59962577  0.18982419  1
  C  C267  1  0.70652762  0.59466563  0.21364679  1
  C  C268  1  0.73663058  0.61167444  0.20465300  1
  C  C269  1  0.74886676  0.63226786  0.17382869  1
  C  C270  1  0.69423151  0.57259195  0.24471300  1
  C  C271  1  0.71126383  0.57168370  0.27225557  1
  C  C272  1  0.70094827  0.40158428  0.45331528  1
  C  C273  1  0.75320456  0.35871279  0.41907635  1
  C  C274  1  0.65055138  0.31691589  0.44466202  1
  C  C275  1  0.70261234  0.40223859  0.58278792  1
  C  C276  1  0.75262556  0.35831495  0.61765909  1
  C  C277  1  0.65097422  0.31791256  0.59181063  1
  C  C278  1  0.89134267  0.34884628  0.74703106  1
  C  C279  1  0.87693286  0.35138143  0.72327422  1
  C  C280  1  0.85593470  0.35125276  0.70203484  1
  C  C281  1  0.85533090  0.34989054  0.66109817  1
  C  C282  1  0.83456094  0.34936584  0.64047387  1
  C  C283  1  0.81364909  0.35070149  0.65974942  1
  C  C284  1  0.81367691  0.35122712  0.70093143  1
  C  C285  1  0.83432309  0.35173358  0.72142078  1
  C  C286  1  0.79310815  0.35180547  0.63901552  1
  C  C287  1  0.77439583  0.35492935  0.62956980  1
  C  C288  1  0.49294279  0.16076043  0.28773959  1
  C  C289  1  0.51353513  0.17838572  0.30930961  1
  C  C290  1  0.53732848  0.20075285  0.33242750  1
  C  C291  1  0.55860576  0.23058322  0.31702725  1
  C  C292  1  0.58123885  0.25320446  0.33933036  1
  C  C293  1  0.58418745  0.24743299  0.37840621  1
  C  C294  1  0.56340368  0.21747677  0.39351404  1
  C  C295  1  0.54066045  0.19476131  0.37115851  1
  C  C296  1  0.60727438  0.27107044  0.40123964  1
  C  C297  1  0.62708035  0.29189449  0.42095641  1
  C  C298  1  0.49331672  0.15880876  0.74709315  1
  C  C299  1  0.51341133  0.17688480  0.72501251  1
  C  C300  1  0.53720632  0.20045348  0.70288862  1
  C  C301  1  0.56029190  0.22852777  0.72039562  1
  C  C302  1  0.58317958  0.25174014  0.69876180  1
  C  C303  1  0.58447959  0.24837928  0.65833449  1
  C  C304  1  0.56169539  0.22027059  0.64092130  1
  C  C305  1  0.53874315  0.19700177  0.66254345  1
  C  C306  1  0.60782957  0.27245870  0.63610217  1
  C  C307  1  0.62760866  0.29324421  0.61615716  1
  C  C308  1  0.70169210  0.54645870  0.29545890  1
  C  C309  1  0.69865536  0.52661903  0.31687116  1
  C  C310  1  0.69794052  0.50516281  0.34092504  1
  C  C311  1  0.70142500  0.50907930  0.38159073  1
  C  C312  1  0.70322194  0.48945705  0.40423644  1
  C  C313  1  0.70128073  0.46451254  0.38764917  1
  C  C314  1  0.69666324  0.45994120  0.34717748  1
  C  C315  1  0.69476298  0.47944292  0.32458989  1
  C  C316  1  0.70301613  0.44404845  0.41033587  1
  C  C317  1  0.70272532  0.42512002  0.42995510  1
  C  C318  1  0.69749451  0.54226196  0.74072306  1
  C  C319  1  0.69608596  0.52471591  0.71681350  1
  C  C320  1  0.69745928  0.50468911  0.69295361  1
  C  C321  1  0.71414133  0.51510750  0.65833775  1
  C  C322  1  0.71668854  0.49574495  0.63659716  1
  C  C323  1  0.70253866  0.46475249  0.64793462  1
  C  C324  1  0.68527131  0.45412050  0.68203156  1
  C  C325  1  0.68265566  0.47337512  0.70370758  1
  C  C326  1  0.70476926  0.44454724  0.62572937  1
  C  C327  1  0.70444640  0.42565473  0.60620867  1
  C  C328  1  0.88910389  0.34454830  0.28923653  1
  C  C329  1  0.87431985  0.34872419  0.30977279  1
  C  C330  1  0.85532192  0.35035038  0.33349180  1
  C  C331  1  0.83627503  0.32610785  0.35979870  1
  C  C332  1  0.81615061  0.32623600  0.38097689  1
  C  C333  1  0.81393590  0.35062414  0.37704487  1
  C  C334  1  0.83446641  0.37602738  0.35300620  1
  C  C335  1  0.85450074  0.37581063  0.33176257  1
  C  C336  1  0.79185350  0.34987881  0.39634630  1
  C  C337  1  0.77408161  0.35415188  0.40664645  1
  C  C338  1  0.02718366  0.10725530  0.03050169  1
  C  C339  1  0.05893628  0.16578673  0.01957110  1
  C  C340  1  0.09856767  0.03163173  0.00014219  1
  C  C341  1  0.12953487  0.01997258  0.03333327  1
  C  C342  1  0.95031154  0.97413072  0.02253486  1
  C  C343  1  0.89488605  0.93551623  0.02273299  1
  N  N344  1  0.03859385  0.13351871  0.00216118  1
  N  N345  1  0.10114324  0.00654468  0.01238435  1
  N  N346  1  0.92324327  0.94934069  0.00105199  1
  O  O347  1  0.93502512  0.29588311  0.92800254  1
  O  O348  1  0.94239033  0.29712680  0.11854971  1
  O  O349  1  0.00731095  0.26758885  0.00813307  1
  O  O350  1  0.38625886  0.08249901  0.11223689  1
  O  O351  1  0.38242377  0.08531252  0.92148826  1
  O  O352  1  0.28181418  0.04905099  0.03011706  1
  O  O353  1  0.74357073  0.64555725  0.92712312  1
  O  O354  1  0.74436720  0.65386810  0.11808458  1
  O  O355  1  0.78110817  0.76090178  0.00712674  1
  O  O356  1  0.72034413  0.39763521  0.44595920  1
  O  O357  1  0.68031862  0.38820252  0.47753554  1
  O  O358  1  0.74002993  0.34948097  0.45034875  1
  O  O359  1  0.74769224  0.37416930  0.39465273  1
  O  O360  1  0.64224741  0.32347814  0.47404765  1
  O  O361  1  0.67614817  0.32852144  0.43191761  1
  O  O362  1  0.72202367  0.39823851  0.58999454  1
  O  O363  1  0.68202413  0.38898286  0.55864616  1
  O  O364  1  0.73981656  0.34934328  0.58617771  1
  O  O365  1  0.74577820  0.37212120  0.64276138  1
  O  O366  1  0.64248408  0.32436417  0.56238860  1
  O  O367  1  0.67659712  0.32929688  0.60407394  1
  O  O368  1  0.70062961  0.35027540  0.51785068  1
