# generated using pymatgen
data_AgH97C96(N4O)3
_symmetry_space_group_name_H-M   'P 1'
_cell_length_a   46.94857761
_cell_length_b   36.83354034
_cell_length_c   67.78858056
_cell_angle_alpha   90.65590065
_cell_angle_beta   87.78420158
_cell_angle_gamma   118.07484838
_symmetry_Int_Tables_number   1
_chemical_formula_structural   AgH97C96(N4O)3
_chemical_formula_sum   'Ag2 H194 C192 N24 O6'
_cell_volume   103351.70972815
_cell_formula_units_Z   2
loop_
 _symmetry_equiv_pos_site_id
 _symmetry_equiv_pos_as_xyz
  1  'x, y, z'
loop_
 _atom_site_type_symbol
 _atom_site_label
 _atom_site_symmetry_multiplicity
 _atom_site_fract_x
 _atom_site_fract_y
 _atom_site_fract_z
 _atom_site_occupancy
  Ag  Ag0  1  0.07652802  0.54106931  0.81063015  1
  Ag  Ag1  1  0.03780897  0.50812773  0.20023391  1
  H  H2  1  0.11810029  0.06445994  0.56498569  1
  H  H3  1  0.05416693  0.05514330  0.58268868  1
  H  H4  1  0.08253072  0.10067242  0.57027591  1
  H  H5  1  0.09385272  0.10485069  0.60642651  1
  H  H6  1  0.12862302  0.03154290  0.59091159  1
  H  H7  1  0.09683170  -0.00646145  0.60547261  1
  H  H8  1  0.04947362  0.15281718  0.68607081  1
  H  H9  1  0.11225743  0.15150070  0.69571478  1
  H  H10  1  0.12616411  0.10743463  0.59126258  1
  H  H11  1  0.05651325  0.99232285  0.58191380  1
  H  H12  1  0.08695655  0.98502508  0.56904898  1
  H  H13  1  0.07930694  0.07613144  0.69203624  1
  H  H14  1  0.04447786  0.08163953  0.68796343  1
  H  H15  1  0.05207091  0.89151804  0.68105975  1
  H  H16  1  0.04836640  0.12064610  0.65231599  1
  H  H17  1  0.08537745  0.13513898  0.63901904  1
  H  H18  1  0.07729257  0.13170520  0.71159304  1
  H  H19  1  0.08223421  0.19309966  0.65581355  1
  H  H20  1  0.11527552  0.18733594  0.66388793  1
  H  H21  1  0.12331146  0.94083083  0.66729061  1
  H  H22  1  0.04571379  0.95694346  0.68494849  1
  H  H23  1  0.07977308  1.00290227  0.69174325  1
  H  H24  1  0.10061880  0.96011704  0.63940773  1
  H  H25  1  0.06078897  0.92602666  0.64788122  1
  H  H26  1  0.09484163  0.89575427  0.65552874  1
  H  H27  1  0.07145642  0.93999634  0.71057420  1
  H  H28  1  0.11009016  0.96549526  0.69864174  1
  H  H29  1  0.06312772  0.02422277  0.44621790  1
  H  H30  1  0.00253091  0.95792148  0.42729335  1
  H  H31  1  0.03125966  0.94840434  0.43928754  1
  H  H32  1  0.04228025  0.95591582  0.40260266  1
  H  H33  1  0.07995736  0.06782071  0.41618217  1
  H  H34  1  0.05098664  0.07401143  0.40249529  1
  H  H35  1  0.97916545  0.84445724  0.33003643  1
  H  H36  1  0.03908102  0.91922518  0.31255836  1
  H  H37  1  0.07469644  0.99326813  0.41601707  1
  H  H38  1  0.00741300  0.03004468  0.42703585  1
  H  H39  1  0.03928121  0.07138316  0.43901743  1
  H  H40  1  0.00761640  0.95616464  0.32015465  1
  H  H41  1  0.97356407  0.90992533  0.32799134  1
  H  H42  1  0.98202904  0.11359693  0.33484495  1
  H  H43  1  0.98514985  0.87889385  0.36345475  1
  H  H44  1  0.02439362  0.91099947  0.37177751  1
  H  H45  1  0.00156974  0.89449645  0.30089289  1
  H  H46  1  0.01863180  0.84677496  0.35524462  1
  H  H47  1  0.04903251  0.89170083  0.34345834  1
  H  H48  1  0.05443007  0.14357512  0.34000848  1
  H  H49  1  0.97164700  0.03741076  0.33337595  1
  H  H50  1  0.00170773  0.02753169  0.32169081  1
  H  H51  1  0.03625054  0.10194325  0.37063321  1
  H  H52  1  0.99556117  0.08915368  0.36666807  1
  H  H53  1  0.03054356  0.15921708  0.35511085  1
  H  H54  1  0.99197286  0.08016161  0.30419760  1
  H  H55  1  0.03273934  0.09964126  0.31061826  1
  H  H56  1  0.86326668  0.40165163  0.13477775  1
  H  H57  1  0.85669014  0.31857665  0.12091822  1
  H  H58  1  0.81920896  0.28384763  0.09489923  1
  H  H59  1  0.79158184  0.28624415  0.06536705  1
  H  H60  1  0.82034477  0.41436242  0.07616274  1
  H  H61  1  0.84921994  0.41233109  0.10551605  1
  H  H62  1  0.75615934  0.29711710  0.04384215  1
  H  H63  1  0.79541242  0.31434650  0.03318419  1
  H  H64  1  0.83426295  0.36717453  0.98900236  1
  H  H65  1  0.81237467  0.31833260  1.00025125  1
  H  H66  1  0.83258269  0.36265721  0.01495267  1
  H  H67  1  0.72912532  0.32662988  0.05273737  1
  H  H68  1  0.69811768  0.29609149  0.03655786  1
  H  H69  1  0.70391777  0.34544795  0.04366729  1
  H  H70  1  0.75889355  0.41127442  0.96120063  1
  H  H71  1  0.73664733  0.42268419  0.97962114  1
  H  H72  1  0.71844212  0.37563045  0.96676182  1
  H  H73  1  0.68782565  0.35805204  0.99330751  1
  H  H74  1  0.68319877  0.34683560  0.01900973  1
  H  H75  1  0.64473674  0.35495803  0.00700562  1
  H  H76  1  0.60168055  0.37417558  0.00457542  1
  H  H77  1  0.66945374  0.50070454  0.01624329  1
  H  H78  1  0.71342958  0.48145609  0.01811908  1
  H  H79  1  0.61815712  0.48604100  0.00325989  1
  H  H80  1  0.56277439  0.39575385  0.00484506  1
  H  H81  1  0.79953298  0.41732479  0.96344554  1
  H  H82  1  0.82674177  0.40110785  0.97189757  1
  H  H83  1  0.83652528  0.43630323  0.94454244  1
  H  H84  1  0.87591297  0.45456017  0.91723836  1
  H  H85  1  0.82900470  0.32912218  0.89648033  1
  H  H86  1  0.78905396  0.31064696  0.92452384  1
  H  H87  1  0.89957714  0.44178379  0.89417222  1
  H  H88  1  0.88064052  0.36529406  0.86813907  1
  H  H89  1  0.24997658  0.69919848  0.88254548  1
  H  H90  1  0.21279349  0.60631257  0.89158645  1
  H  H91  1  0.22402387  0.57679929  0.91708202  1
  H  H92  1  0.25423759  0.57799693  0.94587876  1
  H  H93  1  0.31699551  0.70783785  0.93666279  1
  H  H94  1  0.28676313  0.70666668  0.90738964  1
  H  H95  1  0.29031857  0.58444535  0.96455224  1
  H  H96  1  0.26402533  0.60036551  0.97667860  1
  H  H97  1  0.26819622  0.65566719  0.02098629  1
  H  H98  1  0.24896885  0.60785400  0.00901376  1
  H  H99  1  0.26937417  0.65386005  0.99494436  1
  H  H100  1  0.33379379  0.59539983  0.95955577  1
  H  H101  1  0.33604448  0.55880120  0.97525532  1
  H  H102  1  0.37062795  0.60636980  0.96998386  1
  H  H103  1  0.36434867  0.66307577  0.05360761  1
  H  H104  1  0.39558550  0.66973646  0.03599874  1
  H  H105  1  0.37149134  0.62141337  0.04737692  1
  H  H106  1  0.38712293  0.60098681  0.02152496  1
  H  H107  1  0.38128941  0.58885180  0.99613834  1
  H  H108  1  0.42129176  0.58422718  0.00449293  1
  H  H109  1  0.47408457  0.58736661  0.00473162  1
  H  H110  1  0.52001000  0.71961294  0.99748952  1
  H  H111  1  0.46573776  0.71602937  0.99651373  1
  H  H112  1  0.55407391  0.68774435  0.00114964  1
  H  H113  1  0.52046913  0.59289087  0.00742290  1
  H  H114  1  0.33733416  0.69179037  0.04772596  1
  H  H115  1  0.29840065  0.67892702  0.03973292  1
  H  H116  1  0.30698167  0.71209272  0.06981607  1
  H  H117  1  0.27812889  0.72345787  0.09814726  1
  H  H118  1  0.23556361  0.59475408  0.11378456  1
  H  H119  1  0.26620421  0.58399544  0.08595355  1
  H  H120  1  0.23453839  0.69539811  0.12413695  1
  H  H121  1  0.22300020  0.61301791  0.14200407  1
  H  H122  1  0.97369752  0.49567866  0.85692165  1
  H  H123  1  0.99183558  0.46461738  0.86322324  1
  H  H124  1  0.93763386  0.43692674  0.83573272  1
  H  H125  1  0.94397732  0.43228270  0.87840907  1
  H  H126  1  0.92619966  0.45863869  0.86626346  1
  H  H127  1  0.95161366  0.40823151  0.84610814  1
  H  H128  1  0.95007582  0.39825150  0.16258473  1
  H  H129  1  0.96536311  0.43440228  0.14253627  1
  H  H130  1  0.90756767  0.42151947  0.16721839  1
  H  H131  1  0.91628804  0.37567614  0.13397400  1
  H  H132  1  0.89019744  0.35695966  0.15516116  1
  H  H133  1  0.91999114  0.44550073  0.14574980  1
  H  H134  1  0.18704230  0.60015141  0.83364083  1
  H  H135  1  0.17070281  0.56996459  0.85568280  1
  H  H136  1  0.18003155  0.65520088  0.85311713  1
  H  H137  1  0.22825450  0.62863007  0.85346820  1
  H  H138  1  0.23276946  0.67861944  0.84855561  1
  H  H139  1  0.17674060  0.62843194  0.87309120  1
  H  H140  1  0.14580964  0.61663079  0.18036130  1
  H  H141  1  0.12562639  0.61454139  0.15816742  1
  H  H142  1  0.16974219  0.57790917  0.16258403  1
  H  H143  1  0.17991651  0.65654157  0.14465432  1
  H  H144  1  0.19900557  0.65073701  0.16570434  1
  H  H145  1  0.15321782  0.58088192  0.14204644  1
  H  H146  1  0.53686733  0.55948168  0.02336202  1
  H  H147  1  0.51493830  0.53883107  0.99011444  1
  H  H148  1  0.55355668  0.55076266  0.98006762  1
  H  H149  1  0.52061322  0.47420806  0.98125904  1
  H  H150  1  0.51005074  0.47562042  0.00648216  1
  H  H151  1  0.57357305  0.48394752  0.99005999  1
  H  H152  1  0.55650742  0.49876763  0.03200678  1
  H  H153  1  0.59521478  0.50922877  0.02298107  1
  H  H154  1  0.60100664  0.57193977  0.00469498  1
  H  H155  1  0.59206296  0.57549434  0.03000150  1
  H  H156  1  0.08480622  0.29957797  0.69020906  1
  H  H157  1  0.08676791  0.24379451  0.67139615  1
  H  H158  1  0.08910413  0.18584977  0.72619443  1
  H  H159  1  0.08604182  0.24135390  0.74456732  1
  H  H160  1  0.07746249  0.39858341  0.72431808  1
  H  H161  1  0.07494628  0.45477372  0.74354961  1
  H  H162  1  0.07638637  0.39499024  0.79762486  1
  H  H163  1  0.07887415  0.33901384  0.77819631  1
  H  H164  1  0.12900118  0.82905912  0.70200733  1
  H  H165  1  0.12836647  0.88519641  0.68288294  1
  H  H166  1  0.04086463  0.86565451  0.71479329  1
  H  H167  1  0.04195831  0.80980912  0.73404130  1
  H  H168  1  0.12362570  0.72023318  0.73552760  1
  H  H169  1  0.11968568  0.66046287  0.75428376  1
  H  H170  1  0.03116493  0.64524951  0.78318405  1
  H  H171  1  0.03540979  0.70503548  0.76432216  1
  H  H172  1  0.96823765  0.73965943  0.29052151  1
  H  H173  1  0.96114670  0.79327964  0.30892188  1
  H  H174  1  0.06423034  0.86235872  0.31466767  1
  H  H175  1  0.07119718  0.80984065  0.29547488  1
  H  H176  1  0.97587285  0.64242442  0.25978522  1
  H  H177  1  0.97862104  0.58690194  0.24024759  1
  H  H178  1  0.08255204  0.65172272  0.24163694  1
  H  H179  1  0.07941239  0.70705129  0.26116755  1
  H  H180  1  0.96834769  0.19341321  0.28895887  1
  H  H181  1  0.96251636  0.13389394  0.30851421  1
  H  H182  1  0.06497145  0.19545891  0.31734262  1
  H  H183  1  0.07056811  0.25459772  0.29800672  1
  H  H184  1  0.97574906  0.30156575  0.25708787  1
  H  H185  1  0.98090605  0.36184943  0.23841463  1
  H  H186  1  0.08355703  0.42344495  0.24679206  1
  H  H187  1  0.07801426  0.36292010  0.26545093  1
  H  H188  1  -0.00470118  0.99846303  0.46435283  1
  H  H189  1  0.05494739  0.99336571  0.47778840  1
  H  H190  1  0.02309949  0.03714603  0.50070410  1
  H  H191  1  0.00665520  0.98463638  0.50689151  1
  H  H192  1  0.10606937  0.04699758  0.53513517  1
  H  H193  1  0.03485968  0.02719053  0.54173317  1
  H  H194  1  0.06255268  0.99350894  0.51192447  1
  H  H195  1  0.07944170  0.04570893  0.50555422  1
  C  C196  1  0.09134887  0.04724623  0.56557986  1
  C  C197  1  0.07982597  0.07329061  0.57810374  1
  C  C198  1  0.10078674  0.08698497  0.59610461  1
  C  C199  1  0.10292089  0.01975141  0.59558508  1
  C  C200  1  0.08235226  0.00748514  0.57743223  1
  C  C201  1  0.09404681  0.04828906  0.62624250  1
  C  C202  1  0.07632782  0.16833263  0.68620328  1
  C  C203  1  0.08569125  0.13832149  0.69612008  1
  C  C204  1  0.07111493  0.09681429  0.68576825  1
  C  C205  1  0.08382471  0.07258481  0.65498820  1
  C  C206  1  0.07460216  0.13203383  0.65396919  1
  C  C207  1  0.08865737  0.17334041  0.66452520  1
  C  C208  1  0.08714103  0.01321735  0.65477288  1
  C  C209  1  0.07810185  0.90805911  0.68436001  1
  C  C210  1  0.09736561  0.92184593  0.66465916  1
  C  C211  1  0.08405688  0.94708179  0.69605010  1
  C  C212  1  0.07250564  0.97294581  0.68474376  1
  C  C213  1  0.08547770  0.94681808  0.65281847  1
  C  C214  1  0.03701226  0.01105456  0.44353171  1
  C  C215  1  0.02810404  0.97178541  0.43115709  1
  C  C216  1  0.04931789  0.98264611  0.41226775  1
  C  C217  1  0.05434034  0.05285553  0.41223032  1
  C  C218  1  0.03287479  0.04272103  0.43095923  1
  C  C219  1  0.03527109  0.00896093  0.38334589  1
  C  C220  1  0.00543931  0.86084411  0.32655787  1
  C  C221  1  0.01277823  0.90076194  0.31529831  1
  C  C222  1  1.00033808  0.92624339  0.32721413  1
  C  C223  1  0.01771317  0.96843404  0.35645924  1
  C  C224  1  0.01055377  0.89895615  0.35842118  1
  C  C225  1  0.02274189  0.87351911  0.34624572  1
  C  C226  1  0.02023741  0.03139469  0.35665853  1
  C  C227  1  0.00689579  0.12488923  0.32859515  1
  C  C228  1  0.02965061  0.13413210  0.34581293  1
  C  C229  1  0.00798460  0.08938243  0.31672428  1
  C  C230  1  -0.00212035  0.05113442  0.32961661  1
  C  C231  1  0.01896085  0.09626530  0.35906057  1
  C  C232  1  0.07570879  0.46140519  0.78348807  1
  C  C233  1  0.13854002  0.58435585  0.84080100  1
  C  C234  1  0.07458844  0.61593196  0.78119855  1
  C  C235  1  0.00135852  0.48732542  0.83400529  1
  C  C236  1  0.03325201  0.58548549  0.22676668  1
  C  C237  1  0.10872443  0.55789368  0.17322163  1
  C  C238  1  0.03531021  0.42990989  0.22888052  1
  C  C239  1  0.97085114  0.46054506  0.17088842  1
  C  C240  1  0.87178145  0.37917342  0.13163067  1
  C  C241  1  0.85566060  0.34739943  0.11909666  1
  C  C242  1  0.83730932  0.34817525  0.10242757  1
  C  C243  1  0.82016174  0.31290192  0.09068704  1
  C  C244  1  0.80443132  0.31422203  0.07392593  1
  C  C245  1  0.80510468  0.35115839  0.06837796  1
  C  C246  1  0.82055184  0.38594168  0.08022887  1
  C  C247  1  0.83663413  0.38460428  0.09681428  1
  C  C248  1  0.77726061  0.32423758  0.03735263  1
  C  C249  1  0.76797826  0.34182728  0.02019181  1
  C  C250  1  0.73928258  0.34550329  0.02194053  1
  C  C251  1  0.73096561  0.36328835  0.00628693  1
  C  C252  1  0.75125250  0.37823790  0.98908037  1
  C  C253  1  0.77976642  0.37427683  0.98752280  1
  C  C254  1  0.78829426  0.35596903  0.00292990  1
  C  C255  1  0.81828008  0.35097179  0.00167125  1
  C  C256  1  0.71669284  0.32785156  0.03960207  1
  C  C257  1  0.74107748  0.39794354  0.97341725  1
  C  C258  1  0.70026043  0.36672332  0.00741932  1
  C  C259  1  0.68230301  0.41753155  0.01160373  1
  C  C260  1  0.65067478  0.38720626  0.00851288  1
  C  C261  1  0.62612576  0.39817148  0.00729680  1
  C  C262  1  0.63280439  0.43941078  0.00907012  1
  C  C263  1  0.66441665  0.46905732  0.01357298  1
  C  C264  1  0.68899795  0.45828845  0.01482377  1
  C  C265  1  0.60830465  0.45299776  0.00595153  1
  C  C266  1  0.57673400  0.42896376  0.00567574  1
  C  C267  1  0.80109474  0.39057128  0.96919272  1
  C  C268  1  0.81179242  0.37126258  0.93730137  1
  C  C269  1  0.83524705  0.41219034  0.93458097  1
  C  C270  1  0.85720764  0.42266278  0.91879230  1
  C  C271  1  0.85655147  0.39336596  0.90486181  1
  C  C272  1  0.83113079  0.35267163  0.90709053  1
  C  C273  1  0.80870320  0.34201201  0.92299230  1
  C  C274  1  0.88335819  0.40989189  0.89014595  1
  C  C275  1  0.89349365  0.39638090  0.87383092  1
  C  C276  1  0.23701945  0.66634473  0.87931122  1
  C  C277  1  0.23239515  0.63759368  0.89328525  1
  C  C278  1  0.25185251  0.64164325  0.91023789  1
  C  C279  1  0.24397621  0.60589837  0.92153012  1
  C  C280  1  0.26091859  0.60665580  0.93798435  1
  C  C281  1  0.28647608  0.64373105  0.94392020  1
  C  C282  1  0.29610357  0.67933776  0.93248200  1
  C  C283  1  0.27899500  0.67845085  0.91593287  1
  C  C284  1  0.28963705  0.60957762  0.97313413  1
  C  C285  1  0.30914116  0.61817884  0.99132276  1
  C  C286  1  0.33580388  0.61033348  0.99081857  1
  C  C287  1  0.35418222  0.61880009  0.00785696  1
  C  C288  1  0.34770017  0.63723113  0.02470159  1
  C  C289  1  0.32093902  0.64515205  0.02500649  1
  C  C290  1  0.30095469  0.63425353  0.00852557  1
  C  C291  1  0.27060644  0.63833180  0.00841080  1
  C  C292  1  0.34440591  0.59201974  0.97306853  1
  C  C293  1  0.37069333  0.64852656  0.04125775  1
  C  C294  1  0.38316298  0.61173818  0.00727854  1
  C  C295  1  0.44029632  0.65041688  1.00143823  1
  C  C296  1  0.44268757  0.61421474  0.00325076  1
  C  C297  1  0.47300321  0.61613136  0.00331286  1
  C  C298  1  0.50130301  0.65405879  0.00165187  1
  C  C299  1  0.49828895  0.69007797  0.99906806  1
  C  C300  1  0.46803451  0.68824726  0.99867228  1
  C  C301  1  0.53368283  0.65685129  0.00243665  1
  C  C302  1  0.53834623  0.62451957  0.00462595  1
  C  C303  1  0.31460081  0.66596478  0.04280541  1
  C  C304  1  0.28632082  0.64626084  0.07502713  1
  C  C305  1  0.29057599  0.68588855  0.07901315  1
  C  C306  1  0.27436733  0.69235444  0.09521334  1
  C  C307  1  0.25328435  0.65971412  0.10796077  1
  C  C308  1  0.25117933  0.62067749  0.10426072  1
  C  C309  1  0.26798626  0.61429851  0.08837346  1
  C  C310  1  0.23401578  0.66539528  0.12392263  1
  C  C311  1  0.21615315  0.63642508  0.13791140  1
  C  C312  1  0.97991428  0.47191120  0.85133965  1
  C  C313  1  0.92700751  0.42903232  0.86669573  1
  C  C314  1  0.95267652  0.42778873  0.15712613  1
  C  C315  1  0.89884814  0.38072922  0.14342677  1
  C  C316  1  0.17103274  0.59505931  0.84681130  1
  C  C317  1  0.22328877  0.65327483  0.85925759  1
  C  C318  1  0.13491135  0.59803931  0.16722644  1
  C  C319  1  0.19022504  0.63817629  0.15099666  1
  C  C320  1  0.55242687  0.55909882  0.01107013  1
  C  C321  1  0.53699762  0.53691523  0.99306445  1
  C  C322  1  0.52961001  0.49075567  0.99506717  1
  C  C323  1  0.55868884  0.48932215  0.00127794  1
  C  C324  1  0.57373892  0.51176856  0.01922259  1
  C  C325  1  0.58207579  0.55806812  0.01654434  1
  C  C326  1  0.08421982  0.27412469  0.71884377  1
  C  C327  1  0.08514503  0.27400878  0.69797223  1
  C  C328  1  0.08572733  0.24202987  0.68745990  1
  C  C329  1  0.08490768  0.20777648  0.69721076  1
  C  C330  1  0.08668795  0.20946504  0.71799335  1
  C  C331  1  0.08586659  0.24135587  0.72847538  1
  C  C332  1  0.08230520  0.30597533  0.72959137  1
  C  C333  1  0.08054775  0.33350847  0.73899660  1
  C  C334  1  0.07868004  0.36517831  0.74992144  1
  C  C335  1  0.07730837  0.39828772  0.74038352  1
  C  C336  1  0.07597929  0.42952835  0.75111356  1
  C  C337  1  0.07606979  0.42902469  0.77189837  1
  C  C338  1  0.07678521  0.39577633  0.78156277  1
  C  C339  1  0.07810855  0.36463384  0.77082928  1
  C  C340  1  0.08477318  0.81413461  0.71881747  1
  C  C341  1  0.10947648  0.83692015  0.70451830  1
  C  C342  1  0.10887508  0.86815182  0.69370578  1
  C  C343  1  0.08313206  0.87752194  0.69652232  1
  C  C344  1  0.06015199  0.85752576  0.71192049  1
  C  C345  1  0.06062980  0.82625900  0.72265532  1
  C  C346  1  0.08399410  0.78066322  0.72917347  1
  C  C347  1  0.08241520  0.75109531  0.73819686  1
  C  C348  1  0.07994475  0.71692010  0.74876750  1
  C  C349  1  0.10358290  0.70355934  0.74604269  1
  C  C350  1  0.10135113  0.67044520  0.75649093  1
  C  C351  1  0.07543585  0.64924483  0.77019008  1
  C  C352  1  0.05145265  0.66179138  0.77280846  1
  C  C353  1  0.05372286  0.69495689  0.76232232  1
  C  C354  1  0.02019927  0.77007949  0.29196377  1
  C  C355  1  0.98921534  0.76663128  0.29590879  1
  C  C356  1  0.98525718  0.79643481  0.30640437  1
  C  C357  1  0.01172446  0.83032625  0.31430981  1
  C  C358  1  0.04292403  0.83527759  0.30970517  1
  C  C359  1  0.04698668  0.80584209  0.29884221  1
  C  C360  1  0.02363581  0.73897712  0.28137625  1
  C  C361  1  0.02578819  0.71142799  0.27219649  1
  C  C362  1  0.02747211  0.67933810  0.26144720  1
  C  C363  1  -0.00084668  0.64435672  0.25552778  1
  C  C364  1  0.00076501  0.61350397  0.24456830  1
  C  C365  1  0.03087856  0.61612941  0.23884257  1
  C  C366  1  0.05917173  0.64997481  0.24536552  1
  C  C367  1  0.05750129  0.68077967  0.25630958  1
  C  C368  1  0.01965107  0.22929908  0.29263299  1
  C  C369  1  0.98937448  0.19387412  0.29550167  1
  C  C370  1  0.98615811  0.16073334  0.30652994  1
  C  C371  1  0.01267293  0.16158397  0.31586148  1
  C  C372  1  0.04341543  0.19514139  0.31172656  1
  C  C373  1  0.04672649  0.22835757  0.30063097  1
  C  C374  1  0.02217773  0.26352591  0.28197961  1
  C  C375  1  0.02422958  0.29329411  0.27287026  1
  C  C376  1  0.02663238  0.32760553  0.26236734  1
  C  C377  1  -0.00070198  0.32832014  0.25463753  1
  C  C378  1  0.00227016  0.36189017  0.24414158  1
  C  C379  1  0.03274985  0.39640626  0.24062868  1
  C  C380  1  0.05996522  0.39658241  0.24882423  1
  C  C381  1  0.05693514  0.36298330  0.25932574  1
  C  C382  1  0.02018690  0.00341357  0.46359940  1
  C  C383  1  0.03508987  0.00096477  0.47978233  1
  C  C384  1  0.02848468  0.01099627  0.50042061  1
  C  C385  1  0.08434818  0.04190697  0.54388007  1
  C  C386  1  0.05687616  0.03050425  0.53411338  1
  C  C387  1  0.05767560  0.02025498  0.51275218  1
  N  N388  1  0.09373123  0.01525485  0.63509867  1
  N  N389  1  0.08930368  0.07811012  0.63526455  1
  N  N390  1  0.07984951  0.10203521  0.66484586  1
  N  N391  1  0.09897849  0.05147537  0.60652500  1
  N  N392  1  0.08253167  0.04107123  0.66579113  1
  N  N393  1  0.08548809  0.98033071  0.66447289  1
  N  N394  1  0.03198718  0.04004559  0.37499166  1
  N  N395  1  0.02746955  0.97184964  0.37518929  1
  N  N396  1  0.01262720  0.93349295  0.34701756  1
  N  N397  1  0.04761201  0.01547583  0.40145500  1
  N  N398  1  0.01317060  0.99667454  0.34627307  1
  N  N399  1  0.01592507  0.06099271  0.34762949  1
  N  N400  1  0.07582299  0.48743072  0.79356042  1
  N  N401  1  0.11274752  0.57354359  0.83480832  1
  N  N402  1  0.02069335  0.50381389  0.82130594  1
  N  N403  1  0.07524938  0.58927042  0.78999921  1
  N  N404  1  0.03603978  0.56127705  0.21668148  1
  N  N405  1  0.08609611  0.52804153  0.17906141  1
  N  N406  1  -0.01171310  0.48560004  0.18162305  1
  N  N407  1  0.03638584  0.45636929  0.21898139  1
  N  N408  1  0.94805834  0.43360967  0.84825268  1
  N  N409  1  0.91883522  0.42120220  0.15384790  1
  N  N410  1  0.18627073  0.63417543  0.85882727  1
  N  N411  1  0.16183794  0.59581479  0.15523310  1
  O  O412  1  0.79035379  0.35601945  0.05241766  1
  O  O413  1  0.79164849  0.35960418  0.95366072  1
  O  O414  1  0.70762402  0.40912946  0.01168887  1
  O  O415  1  0.30274432  0.64630074  0.96054211  1
  O  O416  1  0.30000640  0.63652714  0.05909696  1
  O  O417  1  0.41142785  0.65071951  1.00212331  1
