# generated using pymatgen
data_FeH228C228(N2O3)3
_symmetry_space_group_name_H-M   'P 1'
_cell_length_a   65.83559606
_cell_length_b   64.85656600
_cell_length_c   32.90544241
_cell_angle_alpha   89.36447775
_cell_angle_beta   90.34619752
_cell_angle_gamma   120.85336658
_symmetry_Int_Tables_number   1
_chemical_formula_structural   FeH228C228(N2O3)3
_chemical_formula_sum   'Fe1 H228 C228 N6 O9'
_cell_volume   120611.07769192
_cell_formula_units_Z   1
loop_
 _symmetry_equiv_pos_site_id
 _symmetry_equiv_pos_as_xyz
  1  'x, y, z'
loop_
 _atom_site_type_symbol
 _atom_site_label
 _atom_site_symmetry_multiplicity
 _atom_site_fract_x
 _atom_site_fract_y
 _atom_site_fract_z
 _atom_site_occupancy
  Fe  Fe0  1  0.67325222  0.37187251  0.52595621  1
  H  H1  1  0.01240916  0.00594656  0.02780977  1
  H  H2  1  0.94181812  0.91863621  0.01151060  1
  H  H3  1  0.90331529  0.88109624  0.00861153  1
  H  H4  1  0.86959860  0.91941124  0.04790978  1
  H  H5  1  0.90717339  0.95765250  0.03960252  1
  H  H6  1  0.95547130  0.02009877  0.02311631  1
  H  H7  1  0.93990100  0.08984371  0.01084705  1
  H  H8  1  0.94077446  0.12818544  0.01339093  1
  H  H9  1  0.01340666  0.16323761  0.05278854  1
  H  H10  1  0.01400106  0.12618130  0.04056404  1
  H  H11  1  0.02738634  0.07864644  0.02576007  1
  H  H12  1  0.11132422  0.10009088  0.04093431  1
  H  H13  1  0.15032447  0.10333199  0.03802986  1
  H  H14  1  0.11617398  0.02993662  -0.00114081  1
  H  H15  1  0.07702271  0.02452553  0.01483384  1
  H  H16  1  0.88063577  0.39663480  0.77060500  1
  H  H17  1  0.83029849  0.35529403  0.79214048  1
  H  H18  1  0.82541476  0.32974064  0.84695281  1
  H  H19  1  0.83996538  0.31835001  0.90674889  1
  H  H20  1  0.91025263  0.37844452  0.88451263  1
  H  H21  1  0.89568876  0.39015089  0.82466128  1
  H  H22  1  0.86053976  0.30707933  0.94629774  1
  H  H23  1  0.85551552  0.32816632  0.97082414  1
  H  H24  1  0.87699772  0.36268546  0.05959708  1
  H  H25  1  0.85323758  0.33800506  0.03511798  1
  H  H26  1  0.87578995  0.36176941  0.00595736  1
  H  H27  1  0.88565033  0.30063308  0.93260868  1
  H  H28  1  0.87673903  0.27655186  0.96741990  1
  H  H29  1  0.90662585  0.29393190  0.95150126  1
  H  H30  1  0.93085418  0.33830058  0.12117259  1
  H  H31  1  0.94677941  0.33241375  0.08422317  1
  H  H32  1  0.92218213  0.30850395  0.10924952  1
  H  H33  1  0.92083432  0.28904816  0.05489039  1
  H  H34  1  0.91630033  0.28581212  0.00146411  1
  H  H35  1  0.93095053  0.26667950  0.02545763  1
  H  H36  1  0.95384649  0.24714978  0.02059156  1
  H  H37  1  0.01850421  0.31610789  0.01148534  1
  H  H38  1  0.99472316  0.33572685  0.00904889  1
  H  H39  1  0.01851382  0.27455352  0.01171930  1
  H  H40  1  0.97402190  0.23936819  0.05960206  1
  H  H41  1  0.92344287  0.36338316  0.11242967  1
  H  H42  1  0.90203130  0.36982474  0.09424109  1
  H  H43  1  0.91957217  0.38795738  0.15596670  1
  H  H44  1  0.91303478  0.40841321  0.21204717  1
  H  H45  1  0.84967260  0.34199990  0.24553678  1
  H  H46  1  0.85689619  0.32156169  0.19017462  1
  H  H47  1  0.88848556  0.40907601  0.26741100  1
  H  H48  1  0.84860547  0.35913396  0.29636516  1
  H  H49  1  0.48498288  0.19668690  0.28755048  1
  H  H50  1  0.49740071  0.15757318  0.27185618  1
  H  H51  1  0.47672971  0.13010151  0.21790077  1
  H  H52  1  0.45038941  0.11691465  0.15865027  1
  H  H53  1  0.43820196  0.17559793  0.17562198  1
  H  H54  1  0.46486055  0.18915888  0.23457298  1
  H  H55  1  0.41632093  0.10368728  0.11906889  1
  H  H56  1  0.44262980  0.12470879  0.09362820  1
  H  H57  1  0.45596468  0.16035866  0.00470936  1
  H  H58  1  0.45508638  0.13524423  0.02755103  1
  H  H59  1  0.45647809  0.15826276  0.05812832  1
  H  H60  1  0.38409845  0.09642283  0.13185151  1
  H  H61  1  0.36843163  0.07249188  0.09745019  1
  H  H62  1  0.35658740  0.09031435  0.11260199  1
  H  H63  1  0.37793086  0.13529895  0.94271806  1
  H  H64  1  0.35602297  0.12919005  0.97971032  1
  H  H65  1  0.35632069  0.10545316  0.95448695  1
  H  H66  1  0.33786110  0.08481290  0.00750794  1
  H  H67  1  0.33831870  0.07993097  0.06063539  1
  H  H68  1  0.30188814  0.06331262  0.03386424  1
  H  H69  1  0.25956922  0.04925838  0.03098774  1
  H  H70  1  0.27505375  0.12150602  0.05246058  1
  H  H71  1  0.31792181  0.13575460  0.05484342  1
  H  H72  1  0.23729006  0.09150456  0.06161122  1
  H  H73  1  0.21852996  0.04112476  0.02616642  1
  H  H74  1  0.41020614  0.15944878  0.95138930  1
  H  H75  1  0.43823663  0.16523104  0.96739090  1
  H  H76  1  0.43585822  0.18226915  0.91213364  1
  H  H77  1  0.46504731  0.20579818  0.85948237  1
  H  H78  1  0.46194742  0.14152008  0.81648828  1
  H  H79  1  0.43355397  0.11807612  0.87144795  1
  H  H80  1  0.48895739  0.21011920  0.80728597  1
  H  H81  1  0.49172863  0.16761766  0.77256941  1
  H  H82  1  0.63252507  0.54247257  0.76599253  1
  H  H83  1  0.67654945  0.53783552  0.78034622  1
  H  H84  1  0.70038454  0.55640013  0.83753676  1
  H  H85  1  0.71227443  0.58315194  0.89617454  1
  H  H86  1  0.65367855  0.59393882  0.87414997  1
  H  H87  1  0.64186479  0.56740646  0.81476857  1
  H  H88  1  0.72428727  0.61621254  0.93384704  1
  H  H89  1  0.70350459  0.58944877  0.95918930  1
  H  H90  1  0.66841039  0.57545571  0.04709207  1
  H  H91  1  0.69297205  0.57646612  0.02404741  1
  H  H92  1  0.67018326  0.57543510  0.99360933  1
  H  H93  1  0.73194776  0.64866202  0.92070613  1
  H  H94  1  0.75526455  0.66406566  0.95588933  1
  H  H95  1  0.73837207  0.67672645  0.93898260  1
  H  H96  1  0.69326817  0.65466949  0.10823435  1
  H  H97  1  0.69953183  0.67731988  0.07115682  1
  H  H98  1  0.72275806  0.67634034  0.09643956  1
  H  H99  1  0.74239541  0.69529211  0.04264131  1
  H  H100  1  0.74644860  0.69465883  0.98939228  1
  H  H101  1  0.76498692  0.72893532  0.01478068  1
  H  H102  1  0.78460013  0.77219019  0.01157860  1
  H  H103  1  0.71713640  0.76782762  0.99756430  1
  H  H104  1  0.69764001  0.72362685  0.99468277  1
  H  H105  1  0.75774922  0.81024045  0.00012487  1
  H  H106  1  0.79255069  0.80084149  0.04694894  1
  H  H107  1  0.66776897  0.62152640  0.09828892  1
  H  H108  1  0.66237554  0.59326230  0.08241186  1
  H  H109  1  0.64436943  0.59315865  0.14096360  1
  H  H110  1  0.62336262  0.56484941  0.19693230  1
  H  H111  1  0.68864155  0.56939953  0.23415849  1
  H  H112  1  0.70971637  0.59872028  0.17925996  1
  H  H113  1  0.62236693  0.53884124  0.25302475  1
  H  H114  1  0.67151927  0.55372420  0.28784621  1
  H  H115  1  0.69980877  0.36496850  0.59959776  1
  H  H116  1  0.76018465  0.43550986  0.52246336  1
  H  H117  1  0.63009039  0.27989225  0.61734658  1
  H  H118  1  0.64032244  0.35065204  0.60302357  1
  H  H119  1  0.65323604  0.28641413  0.55544389  1
  H  H120  1  0.77299878  0.41822751  0.57729070  1
  H  H121  1  0.71041788  0.31323523  0.45814175  1
  H  H122  1  0.70350166  0.37534685  0.44805285  1
  H  H123  1  0.68015780  0.29755619  0.51175881  1
  H  H124  1  0.72446092  0.46381730  0.43562869  1
  H  H125  1  0.66213727  0.39365499  0.44921497  1
  H  H126  1  0.74429344  0.45225282  0.48682783  1
  H  H127  1  0.62741497  0.41801903  0.60634468  1
  H  H128  1  0.68793341  0.41059335  0.59484930  1
  H  H129  1  0.61047496  0.39491378  0.54132872  1
  H  H130  1  0.57602887  0.32796698  0.46292750  1
  H  H131  1  0.64599114  0.33738245  0.45928291  1
  H  H132  1  0.59032838  0.35936292  0.51516245  1
  H  H133  1  0.86212122  0.41325926  0.73043447  1
  H  H134  1  0.75639779  0.40505994  0.65011758  1
  H  H135  1  0.76497449  0.37291112  0.60653061  1
  H  H136  1  0.79159299  0.40527058  0.65347663  1
  H  H137  1  0.80131575  0.37260576  0.64494125  1
  H  H138  1  0.82641438  0.40840867  0.68812654  1
  H  H139  1  0.83815929  0.37709937  0.69020142  1
  H  H140  1  0.84067431  0.40356578  0.76884861  1
  H  H141  1  0.72954297  0.37783985  0.65707080  1
  H  H142  1  0.74717341  0.35507700  0.64742197  1
  H  H143  1  0.77334930  0.38947080  0.69520785  1
  H  H144  1  0.78313962  0.35707964  0.68706865  1
  H  H145  1  0.80745695  0.39432338  0.72990460  1
  H  H146  1  0.81809077  0.36229789  0.73037274  1
  H  H147  1  0.53318095  0.20892371  0.29102306  1
  H  H148  1  0.61449537  0.31954094  0.39736851  1
  H  H149  1  0.57174962  0.30628704  0.39924510  1
  H  H150  1  0.58460205  0.28111900  0.36222838  1
  H  H151  1  0.54139497  0.26753498  0.36279789  1
  H  H152  1  0.55703338  0.24372546  0.32836706  1
  H  H153  1  0.51389295  0.23089721  0.32486363  1
  H  H154  1  0.52080863  0.18745599  0.33028360  1
  H  H155  1  0.61107579  0.29986005  0.43738655  1
  H  H156  1  0.56760626  0.28918229  0.44395939  1
  H  H157  1  0.58089772  0.26443775  0.40717732  1
  H  H158  1  0.53758252  0.25104132  0.40805372  1
  H  H159  1  0.55145779  0.22637476  0.37307906  1
  H  H160  1  0.50818319  0.21187215  0.36736225  1
  H  H161  1  0.50237976  0.21786909  0.74308644  1
  H  H162  1  0.60754223  0.31926354  0.65052739  1
  H  H163  1  0.60942238  0.28384290  0.67673812  1
  H  H164  1  0.57065743  0.28226198  0.68939935  1
  H  H165  1  0.57636681  0.24906224  0.71578369  1
  H  H166  1  0.53730313  0.24713465  0.72228897  1
  H  H167  1  0.54031618  0.21389178  0.75479471  1
  H  H168  1  0.49281597  0.19358854  0.71000606  1
  H  H169  1  0.59224474  0.30325315  0.60706794  1
  H  H170  1  0.59729910  0.26850488  0.63061698  1
  H  H171  1  0.55987979  0.26704801  0.64289354  1
  H  H172  1  0.56687031  0.23409420  0.66883647  1
  H  H173  1  0.52788245  0.23116447  0.67627652  1
  H  H174  1  0.53117951  0.19731547  0.70929092  1
  H  H175  1  0.62552219  0.50416895  0.29471433  1
  H  H176  1  0.65924712  0.42188068  0.40875336  1
  H  H177  1  0.69017654  0.45585717  0.36757961  1
  H  H178  1  0.64872192  0.44888039  0.37313362  1
  H  H179  1  0.67755652  0.48283478  0.32867971  1
  H  H180  1  0.63597463  0.47514839  0.33723879  1
  H  H181  1  0.66595796  0.50830885  0.29213157  1
  H  H182  1  0.63490293  0.52372613  0.33642382  1
  H  H183  1  0.66475339  0.44080080  0.45029168  1
  H  H184  1  0.69882147  0.47525469  0.40970802  1
  H  H185  1  0.65778409  0.46832753  0.41513452  1
  H  H186  1  0.68695236  0.50233848  0.37060151  1
  H  H187  1  0.64576096  0.49514428  0.37856764  1
  H  H188  1  0.67520400  0.52814649  0.33357643  1
  H  H189  1  0.66050031  0.53774082  0.70155571  1
  H  H190  1  0.69321709  0.45027650  0.62868037  1
  H  H191  1  0.67183205  0.44647662  0.69137411  1
  H  H192  1  0.67372339  0.47888738  0.64352016  1
  H  H193  1  0.65972459  0.47179200  0.71715701  1
  H  H194  1  0.66491642  0.50671256  0.67330780  1
  H  H195  1  0.65538973  0.50230818  0.74805989  1
  H  H196  1  0.62945256  0.52350178  0.70180819  1
  H  H197  1  0.64374615  0.43593938  0.56512902  1
  H  H198  1  0.64421947  0.42583269  0.66993610  1
  H  H199  1  0.64439661  0.45844071  0.62861614  1
  H  H200  1  0.63034480  0.45459727  0.69964065  1
  H  H201  1  0.63442799  0.49008331  0.66203223  1
  H  H202  1  0.62504524  0.48779993  0.73656125  1
  H  H203  1  0.85318737  0.40840981  0.31019932  1
  H  H204  1  0.73996955  0.38071619  0.42800398  1
  H  H205  1  0.73814373  0.34976837  0.38092585  1
  H  H206  1  0.77637572  0.38931475  0.39211306  1
  H  H207  1  0.77682451  0.36079875  0.34188336  1
  H  H208  1  0.81482816  0.40019986  0.35487345  1
  H  H209  1  0.81305347  0.37045553  0.30423698  1
  H  H210  1  0.86056425  0.39510253  0.35002714  1
  H  H211  1  0.74996374  0.36983607  0.46777295  1
  H  H212  1  0.74596619  0.33672102  0.42078914  1
  H  H213  1  0.78399274  0.37577159  0.43138284  1
  H  H214  1  0.78428353  0.34704412  0.38100645  1
  H  H215  1  0.82232078  0.38612654  0.39345012  1
  H  H216  1  0.82089345  0.35682656  0.34300984  1
  H  H217  1  0.94367209  0.16193715  0.02515427  1
  H  H218  1  0.01925591  0.19276569  0.01769926  1
  H  H219  1  0.02541710  0.23288430  0.02663969  1
  H  H220  1  0.94981508  0.20237078  0.02392058  1
  H  H221  1  0.18334809  0.10276331  0.02615874  1
  H  H222  1  0.13787292  0.02583158  0.03790031  1
  H  H223  1  0.17191077  0.02064166  0.03030113  1
  H  H224  1  0.21738273  0.09761681  0.01887130  1
  H  H225  1  0.84051169  0.89583431  0.01025452  1
  H  H226  1  0.86924337  0.84940898  0.02025053  1
  H  H227  1  0.82927955  0.81478008  0.01567974  1
  H  H228  1  0.80047927  0.86126018  0.01534962  1
  C  C229  1  0.00621568  0.01862348  0.02694766  1
  C  C230  1  0.98189657  0.00982609  0.02496336  1
  C  C231  1  0.96511488  0.98470686  0.02423898  1
  C  C232  1  0.94906388  0.96360021  0.02364451  1
  C  C233  1  0.92747989  0.94123079  0.02414965  1
  C  C234  1  0.92561467  0.91889320  0.01689324  1
  C  C235  1  0.90372893  0.89767924  0.01562277  1
  C  C236  1  0.88246720  0.89757687  0.02235952  1
  C  C237  1  0.88473001  0.91943381  0.03476870  1
  C  C238  1  0.90622259  0.94069740  0.03330900  1
  C  C239  1  0.97434120  0.02651538  0.02380186  1
  C  C240  1  0.99037128  0.05127662  0.02358578  1
  C  C241  1  0.98240749  0.06791955  0.02196040  1
  C  C242  1  0.97751900  0.08379954  0.02156915  1
  C  C243  1  0.97703953  0.10529083  0.02383913  1
  C  C244  1  0.95640315  0.10643566  0.01751646  1
  C  C245  1  0.95707740  0.12814870  0.01892060  1
  C  C246  1  0.97852949  0.14980586  0.02673570  1
  C  C247  1  0.99830487  0.14809854  0.03830787  1
  C  C248  1  0.99800104  0.12681280  0.03468409  1
  C  C249  1  0.01458349  0.05941381  0.02573119  1
  C  C250  1  0.02276367  0.04338073  0.02782644  1
  C  C251  1  0.04750206  0.05247773  0.02992860  1
  C  C252  1  0.06858104  0.05898893  0.03077110  1
  C  C253  1  0.09136827  0.06199911  0.02899744  1
  C  C254  1  0.11254359  0.08429530  0.03460508  1
  C  C255  1  0.13436974  0.08598041  0.03309449  1
  C  C256  1  0.13579384  0.06532681  0.02574083  1
  C  C257  1  0.11497982  0.04397348  0.01447198  1
  C  C258  1  0.09323291  0.04181716  0.01914067  1
  C  C259  1  0.86131587  0.38688601  0.77149207  1
  C  C260  1  0.84931718  0.36740758  0.79637732  1
  C  C261  1  0.85908776  0.36089940  0.83072749  1
  C  C262  1  0.84406692  0.34060198  0.85505791  1
  C  C263  1  0.85226841  0.33426031  0.88920395  1
  C  C264  1  0.87606866  0.34817752  0.90039220  1
  C  C265  1  0.89158460  0.36793132  0.87625058  1
  C  C266  1  0.88324238  0.37436880  0.84228192  1
  C  C267  1  0.86944746  0.32445586  0.96209456  1
  C  C268  1  0.88376725  0.32423304  0.99799752  1
  C  C269  1  0.89570688  0.31133462  0.99533554  1
  C  C270  1  0.91072547  0.31288924  0.02759612  1
  C  C271  1  0.91310788  0.32641114  0.06280716  1
  C  C272  1  0.90102481  0.33919621  0.06526854  1
  C  C273  1  0.88608254  0.33791331  0.03297672  1
  C  C274  1  0.87248863  0.35074447  0.03359621  1
  C  C275  1  0.89110662  0.29498790  0.96003879  1
  C  C276  1  0.92897097  0.32656951  0.09598235  1
  C  C277  1  0.92335065  0.29899814  0.02610001  1
  C  C278  1  0.96134003  0.30278879  0.01861799  1
  C  C279  1  0.95010310  0.27784682  0.02235269  1
  C  C280  1  0.96331886  0.26668661  0.02148858  1
  C  C281  1  0.98834696  0.27982073  0.01939583  1
  C  C282  1  -0.00069677  0.30511957  0.01424634  1
  C  C283  1  0.98598537  0.31630964  0.01341755  1
  C  C284  1  0.00013150  0.26604913  0.02146466  1
  C  C285  1  0.98782104  0.24318467  0.03718362  1
  C  C286  1  0.90502261  0.35501976  0.10164636  1
  C  C287  1  0.88752583  0.35366291  0.16721593  1
  C  C288  1  0.90376656  0.37794150  0.17469149  1
  C  C289  1  0.90020990  0.38945619  0.20702175  1
  C  C290  1  0.88045091  0.37732334  0.23327495  1
  C  C291  1  0.86510323  0.35244828  0.22626545  1
  C  C292  1  0.86887761  0.34077956  0.19445896  1
  C  C293  1  0.87595291  0.38972648  0.26574778  1
  C  C294  1  0.85762723  0.37862881  0.29248897  1
  C  C295  1  0.49568215  0.18824044  0.28867696  1
  C  C296  1  0.48953641  0.16860285  0.26558838  1
  C  C297  1  0.47322122  0.16072787  0.23135764  1
  C  C298  1  0.46843569  0.14027929  0.20868283  1
  C  C299  1  0.45361220  0.13288345  0.17491691  1
  C  C300  1  0.44290919  0.14581486  0.16256392  1
  C  C301  1  0.44684751  0.16577268  0.18491404  1
  C  C302  1  0.46187893  0.17326484  0.21843599  1
  C  C303  1  0.42496036  0.12100225  0.10256902  1
  C  C304  1  0.41038410  0.12067487  0.06664559  1
  C  C305  1  0.38536806  0.10734140  0.06886707  1
  C  C306  1  0.37193753  0.10808754  0.03577174  1
  C  C307  1  0.38326168  0.12251456  1.00106660  1
  C  C308  1  0.40825174  0.13560582  0.99921885  1
  C  C309  1  0.42198820  0.13464793  0.03161043  1
  C  C310  1  0.44856253  0.14780167  0.03036198  1
  C  C311  1  0.37307980  0.09102425  0.10445461  1
  C  C312  1  0.36783074  0.12328513  0.96791439  1
  C  C313  1  0.34528410  0.09384502  0.03670734  1
  C  C314  1  0.31269292  0.10065232  0.04359173  1
  C  C315  1  0.29620054  0.07630812  0.03725313  1
  C  C316  1  0.27207680  0.06826634  0.03630518  1
  C  C317  1  0.26384869  0.08426777  0.04288212  1
  C  C318  1  0.28101428  0.10876840  0.04881235  1
  C  C319  1  0.30501225  0.11686828  0.04950661  1
  C  C320  1  0.23924228  0.07798031  0.04551744  1
  C  C321  1  0.21923345  0.05797975  0.03223116  1
  C  C322  1  0.41991898  0.15073768  0.96204183  1
  C  C323  1  0.43456060  0.14901472  0.89740379  1
  C  C324  1  0.44244472  0.17345492  0.89277373  1
  C  C325  1  0.45848508  0.18662840  0.86242321  1
  C  C326  1  0.46663160  0.17585066  0.83492008  1
  C  C327  1  0.45686390  0.15068732  0.83812224  1
  C  C328  1  0.44086428  0.13740695  0.86894627  1
  C  C329  1  0.48382582  0.19126037  0.80455251  1
  C  C330  1  0.49259653  0.18489298  0.77302216  1
  C  C331  1  0.64615838  0.53818989  0.75921435  1
  C  C332  1  0.66425828  0.54414316  0.78573447  1
  C  C333  1  0.67014425  0.55947915  0.82117682  1
  C  C334  1  0.68991691  0.56442924  0.84551749  1
  C  C335  1  0.69652010  0.57937873  0.87903912  1
  C  C336  1  0.68326821  0.58979446  0.88973757  1
  C  C337  1  0.66375228  0.58548532  0.86607206  1
  C  C338  1  0.65720561  0.57050506  0.83248148  1
  C  C339  1  0.70725207  0.60746821  0.95011901  1
  C  C340  1  0.70760423  0.62211208  0.98574572  1
  C  C341  1  0.72066437  0.64749316  0.98301086  1
  C  C342  1  0.71906462  0.66100980  0.01498944  1
  C  C343  1  0.70526819  0.64932902  0.04995165  1
  C  C344  1  0.69221788  0.62393171  0.05221735  1
  C  C345  1  0.69357673  0.61016927  0.02042045  1
  C  C346  1  0.68063465  0.58317607  0.02145463  1
  C  C347  1  0.73720178  0.65980861  0.94796373  1
  C  C348  1  0.70503677  0.66497924  0.08306304  1
  C  C349  1  0.73304915  0.68808944  0.01356986  1
  C  C350  1  0.72971199  0.72309101  0.00594865  1
  C  C351  1  0.75415721  0.73710044  0.01117977  1
  C  C352  1  0.76534283  0.76202294  0.01089132  1
  C  C353  1  0.75273900  0.77425624  0.00745430  1
  C  C354  1  0.72786668  0.75952820  1.00112212  1
  C  C355  1  0.71667903  0.73450895  1.00000293  1
  C  C356  1  0.76642910  0.80044392  0.00931113  1
  C  C357  1  0.78893895  0.81143444  0.02504264  1
  C  C358  1  0.67654120  0.61177260  0.08862636  1
  C  C359  1  0.67816020  0.59635518  0.15465472  1
  C  C360  1  0.65400656  0.58747055  0.16066498  1
  C  C361  1  0.64221812  0.57177706  0.19283989  1
  C  C362  1  0.65405920  0.56449240  0.22020212  1
  C  C363  1  0.67872536  0.57466417  0.21438268  1
  C  C364  1  0.69067565  0.59084739  0.18282098  1
  C  C365  1  0.64161350  0.54706403  0.25266188  1
  C  C366  1  0.65285057  0.54114888  0.28119884  1
  C  C367  1  0.71345406  0.41703476  0.49787467  1
  C  C368  1  0.71450320  0.44630650  0.45064997  1
  C  C369  1  0.66149907  0.32321078  0.54750294  1
  C  C370  1  0.68002242  0.40740242  0.45827030  1
  C  C371  1  0.69029311  0.43070114  0.44285241  1
  C  C372  1  0.72606474  0.43945969  0.47848138  1
  C  C373  1  0.64223687  0.33584895  0.59207045  1
  C  C374  1  0.62828386  0.31251083  0.60771822  1
  C  C375  1  0.65084700  0.30074641  0.56674825  1
  C  C376  1  0.63555693  0.29607703  0.59907512  1
  C  C377  1  0.62614270  0.36591395  0.51421240  1
  C  C378  1  0.59448452  0.33683569  0.47267934  1
  C  C379  1  0.63739312  0.38561507  0.54327097  1
  C  C380  1  0.63329630  0.34200508  0.47061652  1
  C  C381  1  0.61022225  0.33047106  0.45628868  1
  C  C382  1  0.60258905  0.35485915  0.50162687  1
  C  C383  1  0.67101697  0.40791879  0.58388394  1
  C  C384  1  0.66201099  0.42177604  0.59920990  1
  C  C385  1  0.62727269  0.39867333  0.55457437  1
  C  C386  1  0.63945524  0.41912950  0.58195814  1
  C  C387  1  0.67746550  0.32961714  0.51299865  1
  C  C388  1  0.72298865  0.40883054  0.53022470  1
  C  C389  1  0.70000417  0.35897452  0.46406765  1
  C  C390  1  0.71334637  0.34837666  0.45600634  1
  C  C391  1  0.68601965  0.31521061  0.49864451  1
  C  C392  1  0.73722816  0.39204252  0.59577742  1
  C  C393  1  0.71364827  0.38086070  0.58365281  1
  C  C394  1  0.70383437  0.32449916  0.46940850  1
  C  C395  1  0.74706472  0.41987580  0.53948548  1
  C  C396  1  0.75420083  0.41050278  0.57089417  1
  C  C397  1  0.84895807  0.39706273  0.74700565  1
  C  C398  1  0.74481848  0.38710520  0.63641975  1
  C  C399  1  0.75876351  0.37379185  0.63711093  1
  C  C400  1  0.77985634  0.38697769  0.66587373  1
  C  C401  1  0.79445286  0.37516653  0.67377020  1
  C  C402  1  0.81484843  0.39071696  0.70267441  1
  C  C403  1  0.82975424  0.38010888  0.71652695  1
  C  C404  1  0.51812679  0.20052643  0.31277453  1
  C  C405  1  0.60417496  0.31120848  0.42553725  1
  C  C406  1  0.57804712  0.29567038  0.41563772  1
  C  C407  1  0.57404068  0.27447844  0.39043587  1
  C  C408  1  0.54822792  0.25761482  0.37995954  1
  C  C409  1  0.54527604  0.23662181  0.35515553  1
  C  C410  1  0.52002240  0.22004434  0.34096383  1
  C  C411  1  0.50367150  0.20177509  0.73750889  1
  C  C412  1  0.60560817  0.30511959  0.62977123  1
  C  C413  1  0.59703327  0.28136442  0.65185137  1
  C  C414  1  0.57210734  0.26994700  0.66829148  1
  C  C415  1  0.56468311  0.24611862  0.68951547  1
  C  C416  1  0.53913960  0.23425103  0.70327754  1
  C  C417  1  0.52970211  0.21078538  0.72700180  1
  C  C418  1  0.64133236  0.51942566  0.30855375  1
  C  C419  1  0.67360967  0.43771153  0.42437796  1
  C  C420  1  0.68358558  0.45945924  0.39578910  1
  C  C421  1  0.66407424  0.46495408  0.38632647  1
  C  C422  1  0.67150141  0.48621810  0.35773726  1
  C  C423  1  0.65156315  0.49129279  0.34967570  1
  C  C424  1  0.65963974  0.51235643  0.32025299  1
  C  C425  1  0.64451882  0.52579602  0.71999415  1
  C  C426  1  0.67398535  0.43823251  0.62988261  1
  C  C427  1  0.66133774  0.44234170  0.66316842  1
  C  C428  1  0.65701802  0.46309888  0.65397207  1
  C  C429  1  0.64808584  0.46957291  0.69116306  1
  C  C430  1  0.64760671  0.49260947  0.68537789  1
  C  C431  1  0.64271123  0.50119735  0.72486707  1
  C  C432  1  0.84989166  0.39093925  0.32183944  1
  C  C433  1  0.73837699  0.36408311  0.44048794  1
  C  C434  1  0.74816113  0.35384280  0.40966886  1
  C  C435  1  0.77443435  0.37209194  0.40218706  1
  C  C436  1  0.78630998  0.36433317  0.37113257  1
  C  C437  1  0.81266330  0.38281696  0.36444052  1
  C  C438  1  0.82345527  0.37422529  0.33250745  1
  C  C439  1  0.96171146  0.17727057  0.02445217  1
  C  C440  1  0.98115379  0.17379647  0.02531562  1
  C  C441  1  0.00396242  0.19462187  0.02312695  1
  C  C442  1  0.00736028  0.21759385  0.02555944  1
  C  C443  1  0.98787751  0.22106113  0.02776093  1
  C  C444  1  0.96517100  0.20019673  0.02502061  1
  C  C445  1  0.18064387  0.08470348  0.02662784  1
  C  C446  1  0.15757199  0.06438491  0.02735060  1
  C  C447  1  0.15508096  0.04141728  0.03059550  1
  C  C448  1  0.17457354  0.03868930  0.02943729  1
  C  C449  1  0.19782531  0.05895593  0.02874146  1
  C  C450  1  0.20010687  0.08191578  0.02531726  1
  C  C451  1  0.83821093  0.87810684  0.01512578  1
  C  C452  1  0.85848847  0.87596356  0.01895423  1
  C  C453  1  0.85445583  0.85245553  0.01797984  1
  C  C454  1  0.83163974  0.83268397  0.01646205  1
  C  C455  1  0.81117654  0.83452224  0.01723691  1
  C  C456  1  0.81527500  0.85817093  0.01554566  1
  N  N457  1  0.65828618  0.34090972  0.56282034  1
  N  N458  1  0.65921276  0.39049670  0.55682784  1
  N  N459  1  0.68323383  0.35046752  0.49304382  1
  N  N460  1  0.69084708  0.40115851  0.48631380  1
  N  N461  1  0.64075637  0.35887831  0.49926143  1
  N  N462  1  0.70691838  0.38903728  0.55171879  1
  O  O463  1  0.88539772  0.34317056  0.93351569  1
  O  O464  1  0.88930235  0.34137073  0.13531688  1
  O  O465  1  0.94892611  0.31436300  0.01950237  1
  O  O466  1  0.42792882  0.13981513  0.13022668  1
  O  O467  1  0.42049123  0.13609566  0.92920142  1
  O  O468  1  0.33654246  0.11007090  0.04425704  1
  O  O469  1  0.68871753  0.60468890  0.92207193  1
  O  O470  1  0.69041091  0.61085524  0.12258632  1
  O  O471  1  0.71820146  0.69858931  0.00622672  1
