# generated using pymatgen
data_ZnFe3H171C255O28
_symmetry_space_group_name_H-M   'P 1'
_cell_length_a   70.81835946
_cell_length_b   70.22664486
_cell_length_c   38.80730621
_cell_angle_alpha   89.10059243
_cell_angle_beta   90.77398085
_cell_angle_gamma   119.13293112
_symmetry_Int_Tables_number   1
_chemical_formula_structural   ZnFe3H171C255O28
_chemical_formula_sum   'Zn1 Fe3 H171 C255 O28'
_cell_volume   168561.03131314
_cell_formula_units_Z   1
loop_
 _symmetry_equiv_pos_site_id
 _symmetry_equiv_pos_as_xyz
  1  'x, y, z'
loop_
 _atom_site_type_symbol
 _atom_site_label
 _atom_site_symmetry_multiplicity
 _atom_site_fract_x
 _atom_site_fract_y
 _atom_site_fract_z
 _atom_site_occupancy
  Zn  Zn0  1  0.00708252  0.03222300  0.03282017  1
  Fe  Fe1  1  0.70194964  0.40353818  0.51808526  1
  Fe  Fe2  1  0.67280461  0.35036411  0.51595958  1
  Fe  Fe3  1  0.64914313  0.38043303  0.51778540  1
  H  H4  1  0.89776022  0.38086470  0.80486927  1
  H  H5  1  0.85333915  0.34131208  0.82390594  1
  H  H6  1  0.84923251  0.31936083  0.87057845  1
  H  H7  1  0.86283962  0.30838705  0.92130956  1
  H  H8  1  0.92705809  0.36163210  0.90229464  1
  H  H9  1  0.91352511  0.37269788  0.85083302  1
  H  H10  1  0.87994495  0.29779238  0.95376884  1
  H  H11  1  0.87553387  0.31783179  0.97363600  1
  H  H12  1  0.89546268  0.34943833  0.04892870  1
  H  H13  1  0.87338709  0.32745712  0.02858009  1
  H  H14  1  0.89414602  0.34817995  0.00349604  1
  H  H15  1  0.90334105  0.29184192  0.94191566  1
  H  H16  1  0.89530416  0.26921271  0.97011916  1
  H  H17  1  0.92275456  0.28545023  0.95833482  1
  H  H18  1  0.94496574  0.32528289  0.10167385  1
  H  H19  1  0.95920567  0.31952354  0.06979160  1
  H  H20  1  0.93742361  0.29810188  0.09195381  1
  H  H21  1  0.93683021  0.28065344  0.04599717  1
  H  H22  1  0.93055599  0.27657082  1.00123915  1
  H  H23  1  0.94648014  0.26137717  0.01773164  1
  H  H24  1  0.96972656  0.24530005  0.01387783  1
  H  H25  1  0.02595121  0.30941235  0.00606197  1
  H  H26  1  1.00159551  0.32549003  0.00334091  1
  H  H27  1  0.02956800  0.27319137  0.00985467  1
  H  H28  1  0.98802670  0.23862461  0.04501601  1
  H  H29  1  0.93842081  0.34898358  0.09278254  1
  H  H30  1  0.91766450  0.35454699  0.07941162  1
  H  H31  1  0.93488993  0.37035362  0.12966044  1
  H  H32  1  0.92853900  0.38991220  0.17600225  1
  H  H33  1  0.87065010  0.33033981  0.20469017  1
  H  H34  1  0.87789349  0.31096048  0.15900585  1
  H  H35  1  0.90482925  0.39078128  0.22352086  1
  H  H36  1  0.86958402  0.34461983  0.24600305  1
  H  H37  1  0.45906011  0.17601657  0.23297844  1
  H  H38  1  0.47653347  0.14382360  0.22193914  1
  H  H39  1  0.45799911  0.11688766  0.17574588  1
  H  H40  1  0.43405537  0.10420463  0.12505073  1
  H  H41  1  0.41818687  0.15566167  0.13834146  1
  H  H42  1  0.44242358  0.16888396  0.18876227  1
  H  H43  1  0.40492200  0.09176301  0.09067743  1
  H  H44  1  0.42864095  0.11205046  0.07030198  1
  H  H45  1  0.43897911  0.14449878  0.99465007  1
  H  H46  1  0.44020072  0.12234460  0.01434584  1
  H  H47  1  0.43922834  0.14250341  0.03999405  1
  H  H48  1  0.37509456  0.08539242  0.10228180  1
  H  H49  1  0.36103135  0.06300066  0.07436651  1
  H  H50  1  0.34976427  0.07968675  0.08552498  1
  H  H51  1  0.36653629  0.11993356  0.94191916  1
  H  H52  1  0.34671101  0.11393966  0.97391000  1
  H  H53  1  0.34775513  0.09269990  0.95177065  1
  H  H54  1  0.33162411  0.07447144  0.99700577  1
  H  H55  1  0.33345648  0.06901501  0.04147458  1
  H  H56  1  0.30175212  0.05478058  0.02271360  1
  H  H57  1  0.26282664  0.04097833  0.01843716  1
  H  H58  1  0.27252734  0.10566341  0.03781221  1
  H  H59  1  0.31222791  0.11989474  0.03994691  1
  H  H60  1  0.23731107  0.07623483  0.04052282  1
  H  H61  1  0.22808684  0.03028812  0.01897447  1
  H  H62  1  0.39562921  0.14269533  0.95003961  1
  H  H63  1  0.42185749  0.14827235  0.96250969  1
  H  H64  1  0.41788331  0.16353617  0.91552793  1
  H  H65  1  0.44390032  0.18531141  0.87060830  1
  H  H66  1  0.44487113  0.12760108  0.83554179  1
  H  H67  1  0.41959733  0.10606711  0.88217905  1
  H  H68  1  0.46588244  0.18911524  0.82351647  1
  H  H69  1  0.46758651  0.14862508  0.79624370  1
  H  H70  1  0.65022905  0.58988762  0.79199206  1
  H  H71  1  0.69005269  0.58455501  0.81172587  1
  H  H72  1  0.71169836  0.60181310  0.85809277  1
  H  H73  1  0.72216026  0.62579675  0.90823843  1
  H  H74  1  0.66844814  0.63741566  0.88856865  1
  H  H75  1  0.65784120  0.61334764  0.83780924  1
  H  H76  1  0.73226536  0.65327648  0.94002321  1
  H  H77  1  0.71276158  0.62910974  0.96072863  1
  H  H78  1  0.68045052  0.61767792  0.03519197  1
  H  H79  1  0.70241608  0.61694658  0.01570513  1
  H  H80  1  0.68211857  0.61795550  0.98981218  1
  H  H81  1  0.73919079  0.68294426  0.92836478  1
  H  H82  1  0.76117313  0.69649309  0.95724576  1
  H  H83  1  0.74526556  0.70852737  0.94427433  1
  H  H84  1  0.70502089  0.69031922  0.08742030  1
  H  H85  1  0.71039836  0.71061747  0.05526715  1
  H  H86  1  0.73185172  0.70946446  0.07711658  1
  H  H87  1  0.74949385  0.72597672  0.03191397  1
  H  H88  1  0.75363023  0.72455356  0.98708873  1
  H  H89  1  0.76881001  0.75499531  0.00501862  1
  H  H90  1  0.78516963  0.79414220  0.00266200  1
  H  H91  1  0.72195781  0.78939995  0.99399594  1
  H  H92  1  0.70565740  0.74925047  0.99050092  1
  H  H93  1  0.75843763  0.82819534  -0.00207123  1
  H  H94  1  0.79174064  0.81848222  0.03397423  1
  H  H95  1  0.68038261  0.66079245  0.07708439  1
  H  H96  1  0.67593551  0.63457697  0.06638813  1
  H  H97  1  0.65998585  0.63716249  0.11663988  1
  H  H98  1  0.64113355  0.61140667  0.16389647  1
  H  H99  1  0.70108643  0.61258555  0.19299441  1
  H  H100  1  0.71976094  0.63928312  0.14665664  1
  H  H101  1  0.64113295  0.58637046  0.21214742  1
  H  H102  1  0.68755123  0.59800034  0.23493873  1
  H  H103  1  0.82036364  0.37478253  0.78008457  1
  H  H104  1  0.79109863  0.37348945  0.74499235  1
  H  H105  1  0.82354653  0.36970051  0.65327774  1
  H  H106  1  0.85250078  0.37104597  0.68938141  1
  H  H107  1  0.80018250  0.36874096  0.62454502  1
  H  H108  1  0.77102166  0.36757397  0.58931506  1
  H  H109  1  0.73874269  0.37126582  0.67983265  1
  H  H110  1  0.76757809  0.37245385  0.71608431  1
  H  H111  1  0.52419642  0.18965400  0.33102706  1
  H  H112  1  0.54996621  0.21895257  0.36751438  1
  H  H113  1  0.53486677  0.26428937  0.31258641  1
  H  H114  1  0.50930465  0.23453020  0.27685425  1
  H  H115  1  0.55638669  0.28825376  0.34023441  1
  H  H116  1  0.58258227  0.31767285  0.37603303  1
  H  H117  1  0.59748510  0.27284297  0.43045256  1
  H  H118  1  0.57146183  0.24293069  0.39537250  1
  H  H119  1  0.49443666  0.22395099  0.72074035  1
  H  H120  1  0.52089083  0.25313155  0.68477394  1
  H  H121  1  0.56711067  0.23080604  0.70844427  1
  H  H122  1  0.54014472  0.20184650  0.74428433  1
  H  H123  1  0.58870903  0.25445491  0.68003474  1
  H  H124  1  0.61532732  0.28422314  0.64487556  1
  H  H125  1  0.56940693  0.30604708  0.62169748  1
  H  H126  1  0.54224798  0.27653542  0.65651649  1
  H  H127  1  0.65560429  0.51733252  0.25566046  1
  H  H128  1  0.65919711  0.49045374  0.29128813  1
  H  H129  1  0.67094015  0.53151777  0.38029150  1
  H  H130  1  0.66728529  0.55797875  0.34358084  1
  H  H131  1  0.67372877  0.50967984  0.40974340  1
  H  H132  1  0.67742090  0.48277248  0.44511444  1
  H  H133  1  0.66570493  0.44235295  0.35677251  1
  H  H134  1  0.66186448  0.46878974  0.32049961  1
  H  H135  1  0.67704601  0.53207481  0.76634092  1
  H  H136  1  0.68136986  0.50549081  0.73301431  1
  H  H137  1  0.64993035  0.51833376  0.64588021  1
  H  H138  1  0.64586701  0.54481949  0.68026300  1
  H  H139  1  0.65296166  0.49661571  0.61876515  1
  H  H140  1  0.65768067  0.47027827  0.58529426  1
  H  H141  1  0.68883207  0.45763778  0.67142491  1
  H  H142  1  0.68442448  0.48383440  0.70592599  1
  H  H143  1  0.82936967  0.38827222  0.26674611  1
  H  H144  1  0.80054717  0.38755021  0.30106126  1
  H  H145  1  0.82014581  0.36067597  0.38703408  1
  H  H146  1  0.84871987  0.36161536  0.35163353  1
  H  H147  1  0.79668197  0.36001186  0.41530701  1
  H  H148  1  0.76800317  0.35979909  0.44943406  1
  H  H149  1  0.74913295  0.38648543  0.36390020  1
  H  H150  1  0.77755478  0.38698474  0.32886965  1
  H  H151  1  0.96831475  0.10832615  0.01837301  1
  H  H152  1  0.96563930  0.07165630  0.01689854  1
  H  H153  1  0.03488669  0.10140755  0.02114927  1
  H  H154  1  0.03765821  0.13819502  0.01992709  1
  H  H155  1  0.97284966  0.16990090  0.01983749  1
  H  H156  1  0.97133730  0.20424097  0.01959796  1
  H  H157  1  0.04108689  0.24082973  0.02193883  1
  H  H158  1  0.04235745  0.20639531  0.02165396  1
  H  H159  1  0.08663417  0.00697822  0.02123400  1
  H  H160  1  0.05230718  0.00848894  0.02312137  1
  H  H161  1  0.08803812  0.07822418  0.01151634  1
  H  H162  1  0.12251026  0.07682520  0.01271300  1
  H  H163  1  0.14970391  0.00400254  0.02119764  1
  H  H164  1  0.18531514  0.00563301  0.02239725  1
  H  H165  1  0.21583443  0.07502185  0.00356110  1
  H  H166  1  0.18084745  0.07402209  0.01158708  1
  H  H167  1  0.92394061  0.92066228  0.01487271  1
  H  H168  1  0.96132214  0.95185567  0.01493454  1
  H  H169  1  0.93624563  0.99653115  0.01623459  1
  H  H170  1  0.89877456  0.96530092  0.01516789  1
  H  H171  1  0.86097602  0.86764196  0.01210365  1
  H  H172  1  0.82589073  0.83401070  0.00958720  1
  H  H173  1  0.79305996  0.87204288  0.01039459  1
  H  H174  1  0.82826671  0.90558337  0.01218960  1
  C  C175  1  0.97416870  -0.00449902  0.01532398  1
  C  C176  1  -0.00075529  0.06238097  0.02325432  1
  C  C177  1  0.04662783  0.04362108  0.01864498  1
  C  C178  1  0.88045395  0.36937412  0.80447275  1
  C  C179  1  0.87060234  0.35218319  0.82779305  1
  C  C180  1  0.88006920  0.34693865  0.85680888  1
  C  C181  1  0.86628990  0.32870896  0.87754877  1
  C  C182  1  0.87389460  0.32271825  0.90638592  1
  C  C183  1  0.89568583  0.33499348  0.91565548  1
  C  C184  1  0.90998805  0.35262680  0.89514779  1
  C  C185  1  0.90231034  0.35870391  0.86622798  1
  C  C186  1  0.88803464  0.31342888  0.96745319  1
  C  C187  1  0.90038608  0.31239223  0.99840101  1
  C  C188  1  0.91138611  0.30027805  0.99590246  1
  C  C189  1  0.92493329  0.30119304  0.02351051  1
  C  C190  1  0.92787459  0.31418052  0.05276911  1
  C  C191  1  0.91719273  0.32668492  0.05423078  1
  C  C192  1  0.90304562  0.32558853  0.02731373  1
  C  C193  1  0.89102493  0.33828664  0.02721769  1
  C  C194  1  0.90810616  0.28613730  0.96519390  1
  C  C195  1  0.94305455  0.31442081  0.08041511  1
  C  C196  1  0.93723440  0.28896044  0.02143014  1
  C  C197  1  0.97268395  0.29470903  0.01211477  1
  C  C198  1  0.96385358  0.27214524  0.01536837  1
  C  C199  1  0.97728293  0.26299872  0.01487645  1
  C  C200  1  1.00008261  0.27600178  0.01352298  1
  C  C201  1  0.00855381  0.29882534  0.00856637  1
  C  C202  1  0.99497553  0.30797938  0.00738491  1
  C  C203  1  0.01246064  0.26462862  0.01640296  1
  C  C204  1  0.00211392  0.24359154  0.02846150  1
  C  C205  1  0.92130412  0.34125102  0.08471283  1
  C  C206  1  0.90586658  0.33969372  0.14002879  1
  C  C207  1  0.92051795  0.36175793  0.14559562  1
  C  C208  1  0.91709545  0.37267480  0.17222949  1
  C  C209  1  0.89897752  0.36197105  0.19441147  1
  C  C210  1  0.88497618  0.33936306  0.18885355  1
  C  C211  1  0.88873536  0.32834509  0.16270513  1
  C  C212  1  0.89439350  0.37324291  0.22089463  1
  C  C213  1  0.87733446  0.36241145  0.24349442  1
  C  C214  1  0.47054725  0.16979714  0.23462875  1
  C  C215  1  0.46735716  0.15210361  0.21511842  1
  C  C216  1  0.45259613  0.14412682  0.18640365  1
  C  C217  1  0.44952148  0.12564984  0.16751534  1
  C  C218  1  0.43614284  0.11856882  0.13871119  1
  C  C219  1  0.42529054  0.12977414  0.12777622  1
  C  C220  1  0.42717971  0.14742788  0.14662305  1
  C  C221  1  0.44076520  0.15467620  0.17520732  1
  C  C222  1  0.41187086  0.10750640  0.07677017  1
  C  C223  1  0.39848580  0.10658489  0.04582643  1
  C  C224  1  0.37575518  0.09419949  0.04810064  1
  C  C225  1  0.36316404  0.09469658  0.02001135  1
  C  C226  1  0.37272396  0.10820930  0.99085160  1
  C  C227  1  0.39547288  0.12077713  0.98945771  1
  C  C228  1  0.40856396  0.11993925  0.01663182  1
  C  C229  1  0.43282331  0.13296059  0.01628450  1
  C  C230  1  0.36497572  0.08001815  0.07901410  1
  C  C231  1  0.35790115  0.10884560  0.96328059  1
  C  C232  1  0.33903946  0.08202628  0.02182753  1
  C  C233  1  0.30940514  0.08839412  0.03049808  1
  C  C234  1  0.29552871  0.06616067  0.02507609  1
  C  C235  1  0.27337474  0.05823236  0.02359297  1
  C  C236  1  0.26449916  0.07212837  0.02912534  1
  C  C237  1  0.27903433  0.09457837  0.03466012  1
  C  C238  1  0.30119786  0.10263851  0.03549586  1
  C  C239  1  0.24152676  0.06452914  0.02984985  1
  C  C240  1  0.22531276  0.04418006  0.02161407  1
  C  C241  1  0.40530116  0.13497889  0.95828864  1
  C  C242  1  0.41850241  0.13377338  0.90317478  1
  C  C243  1  0.42448491  0.15583360  0.89900989  1
  C  C244  1  0.43861289  0.16794902  0.87308072  1
  C  C245  1  0.44667813  0.15839453  0.84964074  1
  C  C246  1  0.43928666  0.13564889  0.85329700  1
  C  C247  1  0.42513622  0.12347865  0.87946811  1
  C  C248  1  0.46163961  0.17195069  0.82371477  1
  C  C249  1  0.47142523  0.16558743  0.79909459  1
  C  C250  1  0.66199256  0.58409224  0.79188802  1
  C  C251  1  0.67897907  0.59099799  0.81532573  1
  C  C252  1  0.68390450  0.60539343  0.84403306  1
  C  C253  1  0.70211440  0.60951766  0.86479453  1
  C  C254  1  0.70785162  0.62281836  0.89330189  1
  C  C255  1  0.69536277  0.63241415  0.90224671  1
  C  C256  1  0.67769025  0.62934994  0.88172573  1
  C  C257  1  0.67186559  0.61588222  0.85315815  1
  C  C258  1  0.71678007  0.64592974  0.95384732  1
  C  C259  1  0.71763580  0.65916355  0.98439656  1
  C  C260  1  0.72994745  0.68208423  0.98187338  1
  C  C261  1  0.72895322  0.69453653  0.00924624  1
  C  C262  1  0.71583885  0.68454608  0.03838118  1
  C  C263  1  0.70320816  0.66160078  0.03995609  1
  C  C264  1  0.70434064  0.64870426  0.01329639  1
  C  C265  1  0.69170725  0.62422327  0.01363516  1
  C  C266  1  0.74446767  0.69297953  0.95156871  1
  C  C267  1  0.71563123  0.69927257  0.06590276  1
  C  C268  1  0.74129742  0.71888464  0.00727945  1
  C  C269  1  0.73594196  0.74946149  0.99902994  1
  C  C270  1  0.75828780  0.76224947  0.00285972  1
  C  C271  1  0.76759457  0.78473508  0.00304190  1
  C  C272  1  0.75502048  0.79541652  0.00154072  1
  C  C273  1  0.73234949  0.78199822  0.99633853  1
  C  C274  1  0.72302996  0.75938376  0.99469026  1
  C  C275  1  0.76670835  0.81897910  0.00451678  1
  C  C276  1  0.78745491  0.82848221  0.01710170  1
  C  C277  1  0.68865994  0.65147714  0.07052990  1
  C  C278  1  0.69076972  0.63849319  0.12721776  1
  C  C279  1  0.66880121  0.63127311  0.13287172  1
  C  C280  1  0.65828816  0.61702217  0.16000606  1
  C  C281  1  0.66933095  0.60949638  0.18253976  1
  C  C282  1  0.69182954  0.61800567  0.17694032  1
  C  C283  1  0.70244940  0.63278973  0.15039747  1
  C  C284  1  0.65859954  0.59360104  0.20944583  1
  C  C285  1  0.67000580  0.58761162  0.23236679  1
  C  C286  1  0.70886591  0.37214880  0.56496865  1
  C  C287  1  0.67577649  0.41655797  0.47005611  1
  C  C288  1  0.63582517  0.34283993  0.47112473  1
  C  C289  1  0.63637589  0.34241288  0.56299999  1
  C  C290  1  0.67817172  0.41874338  0.56188957  1
  C  C291  1  0.71193372  0.37509972  0.47336487  1
  C  C292  1  0.86812949  0.37229697  0.77921086  1
  C  C293  1  0.85569826  0.37372341  0.75819516  1
  C  C294  1  0.83892485  0.37324766  0.73752727  1
  C  C295  1  0.82094464  0.37380197  0.75211055  1
  C  C296  1  0.80435608  0.37300198  0.73193963  1
  C  C297  1  0.80446604  0.37154689  0.69557038  1
  C  C298  1  0.82237850  0.37090769  0.68100374  1
  C  C299  1  0.83896983  0.37171951  0.70128499  1
  C  C300  1  0.78677508  0.37074214  0.67388683  1
  C  C301  1  0.78694421  0.36929562  0.63754130  1
  C  C302  1  0.77044881  0.36865738  0.61726335  1
  C  C303  1  0.75263462  0.36953559  0.63163599  1
  C  C304  1  0.75233858  0.37072691  0.66792049  1
  C  C305  1  0.76882674  0.37136040  0.68834402  1
  C  C306  1  0.73628323  0.36954459  0.61030532  1
  C  C307  1  0.72343974  0.37053409  0.58991959  1
  C  C308  1  0.48726557  0.18015644  0.25820960  1
  C  C309  1  0.50063665  0.19301785  0.27864315  1
  C  C310  1  0.51527000  0.20987175  0.30037554  1
  C  C311  1  0.52693266  0.20620454  0.32693095  1
  C  C312  1  0.54151847  0.22298724  0.34755135  1
  C  C313  1  0.54536316  0.24463302  0.34302996  1
  C  C314  1  0.53313105  0.24818028  0.31705473  1
  C  C315  1  0.51859155  0.23138845  0.29660171  1
  C  C316  1  0.56122917  0.26264630  0.36450283  1
  C  C317  1  0.56504997  0.28428379  0.35989891  1
  C  C318  1  0.57988544  0.30112900  0.38009583  1
  C  C319  1  0.59184937  0.29752994  0.40627051  1
  C  C320  1  0.58823525  0.27596417  0.41061395  1
  C  C321  1  0.57343444  0.25909739  0.39052590  1
  C  C322  1  0.60678783  0.31460846  0.42723550  1
  C  C323  1  0.62006609  0.32790740  0.44704023  1
  C  C324  1  0.48650552  0.18069277  0.77688555  1
  C  C325  1  0.49995243  0.19416659  0.75712899  1
  C  C326  1  0.51524889  0.21071310  0.73567182  1
  C  C327  1  0.51050657  0.22567355  0.71790631  1
  C  C328  1  0.52566522  0.24221260  0.69753911  1
  C  C329  1  0.54669060  0.24495007  0.69342391  1
  C  C330  1  0.55135069  0.22979329  0.71072607  1
  C  C331  1  0.53614641  0.21327469  0.73110237  1
  C  C332  1  0.56295888  0.26277896  0.67200689  1
  C  C333  1  0.58401002  0.26558097  0.66781028  1
  C  C334  1  0.59923504  0.28240262  0.64789394  1
  C  C335  1  0.59442967  0.29746083  0.63079911  1
  C  C336  1  0.57343140  0.29464578  0.63489535  1
  C  C337  1  0.55815873  0.27785312  0.65475191  1
  C  C338  1  0.60961865  0.31424662  0.60951070  1
  C  C339  1  0.62215145  0.32759182  0.58884732  1
  C  C340  1  0.66114760  0.56960754  0.25432813  1
  C  C341  1  0.65976178  0.55532259  0.27461131  1
  C  C342  1  0.66071248  0.53956137  0.29679262  1
  C  C343  1  0.65870644  0.52011358  0.28324126  1
  C  C344  1  0.66084861  0.50496856  0.30372990  1
  C  C345  1  0.66526585  0.50822073  0.33951250  1
  C  C346  1  0.66737851  0.52778427  0.35307957  1
  C  C347  1  0.66526230  0.54293520  0.33240436  1
  C  C348  1  0.66756068  0.49200036  0.36143644  1
  C  C349  1  0.67197442  0.49514318  0.39722908  1
  C  C350  1  0.67416419  0.47995513  0.41756999  1
  C  C351  1  0.67223026  0.46054015  0.40384015  1
  C  C352  1  0.66761539  0.45729294  0.36819794  1
  C  C353  1  0.66540220  0.47246156  0.34772906  1
  C  C354  1  0.67450456  0.44524219  0.42525700  1
  C  C355  1  0.67558734  0.43220801  0.44541765  1
  C  C356  1  0.65965257  0.56935154  0.76672004  1
  C  C357  1  0.65865739  0.55610966  0.74536069  1
  C  C358  1  0.66098519  0.54053725  0.72597536  1
  C  C359  1  0.67105882  0.52885794  0.73983139  1
  C  C360  1  0.67345232  0.51377327  0.72066105  1
  C  C361  1  0.66597087  0.50920428  0.68612538  1
  C  C362  1  0.65597312  0.52089459  0.67228028  1
  C  C363  1  0.65356615  0.53597822  0.69157282  1
  C  C364  1  0.66854769  0.49308640  0.66556239  1
  C  C365  1  0.66105656  0.48849180  0.63104987  1
  C  C366  1  0.66371374  0.47358346  0.61176508  1
  C  C367  1  0.67414585  0.46227598  0.62539696  1
  C  C368  1  0.68117212  0.46649115  0.66002057  1
  C  C369  1  0.67853456  0.48139541  0.67944153  1
  C  C370  1  0.67713081  0.44729576  0.60537479  1
  C  C371  1  0.67817368  0.43431288  0.58587592  1
  C  C372  1  0.86918478  0.37220224  0.26507148  1
  C  C373  1  0.85723600  0.37482472  0.28490320  1
  C  C374  1  0.84154796  0.37537827  0.30653527  1
  C  C375  1  0.82730985  0.38247361  0.29340343  1
  C  C376  1  0.81094167  0.38194368  0.31313600  1
  C  C377  1  0.80759290  0.37419620  0.34764898  1
  C  C378  1  0.82184071  0.36700826  0.36081293  1
  C  C379  1  0.83818438  0.36752396  0.34089630  1
  C  C380  1  0.79010557  0.37372169  0.36871768  1
  C  C381  1  0.78658148  0.36598959  0.40325199  1
  C  C382  1  0.77033902  0.36582622  0.42288899  1
  C  C383  1  0.75649137  0.37345069  0.40964412  1
  C  C384  1  0.75974193  0.38077500  0.37501244  1
  C  C385  1  0.77597355  0.38095985  0.35526145  1
  C  C386  1  0.74037230  0.37383533  0.43026226  1
  C  C387  1  0.72716939  0.37440513  0.44964719  1
  C  C388  1  0.00326807  0.12588550  0.01974575  1
  C  C389  1  0.98287752  0.10674090  0.01873310  1
  C  C390  1  0.98135950  0.08628697  0.01820417  1
  C  C391  1  1.00009794  0.08446115  0.02028031  1
  C  C392  1  0.02038217  0.10305919  0.02071265  1
  C  C393  1  0.02194464  0.12347621  0.01993199  1
  C  C394  1  0.00563391  0.14706463  0.02019781  1
  C  C395  1  0.00726146  0.16525390  0.02052297  1
  C  C396  1  0.00769597  0.18557479  0.02069941  1
  C  C397  1  0.98770695  0.18555249  0.02011413  1
  C  C398  1  0.98692335  0.20468770  0.02059202  1
  C  C399  1  0.00592403  0.22523791  0.02242371  1
  C  C400  1  0.02601142  0.22542273  0.02142502  1
  C  C401  1  0.02682520  0.20610627  0.02110205  1
  C  C402  1  0.10696325  0.04175471  0.01741865  1
  C  C403  1  0.08676833  0.02255036  0.01987781  1
  C  C404  1  0.06769972  0.02342546  0.02090236  1
  C  C405  1  0.06814875  0.04346392  0.01803821  1
  C  C406  1  0.08780349  0.06267745  0.01429858  1
  C  C407  1  0.10702302  0.06189544  0.01472683  1
  C  C408  1  0.12610887  0.04017563  0.01753677  1
  C  C409  1  0.14288828  0.03913748  0.01751080  1
  C  C410  1  0.16271092  0.03897969  0.01709980  1
  C  C411  1  0.16446337  0.01967191  0.01928910  1
  C  C412  1  0.18439034  0.02063077  0.01981511  1
  C  C413  1  0.20372906  0.04099476  0.01779739  1
  C  C414  1  0.20175005  0.05992479  0.01150964  1
  C  C415  1  0.18203149  0.05911575  0.01321714  1
  C  C416  1  0.90844604  0.94064555  0.01500040  1
  C  C417  1  0.92661569  0.93730956  0.01516234  1
  C  C418  1  0.94757122  0.95477432  0.01530325  1
  C  C419  1  0.95107649  0.97608800  0.01601630  1
  C  C420  1  0.93350637  0.97987710  0.01611376  1
  C  C421  1  0.91259052  0.96245843  0.01543525  1
  C  C422  1  0.88682414  0.92328463  0.01426581  1
  C  C423  1  0.86827565  0.90797416  0.01342057  1
  C  C424  1  0.84746846  0.88930816  0.01228198  1
  C  C425  1  0.84601394  0.86851281  0.01147358  1
  C  C426  1  0.82635568  0.84972135  0.01068633  1
  C  C427  1  0.80650478  0.84999137  0.01158480  1
  C  C428  1  0.80779063  0.87077133  0.01074414  1
  C  C429  1  0.82764284  0.88977127  0.01156728  1
  O  O430  1  0.98392351  0.00141685  0.98770369  1
  O  O431  1  0.98131298  0.00438812  0.04503740  1
  O  O432  1  0.03543817  0.03529351  0.04635963  1
  O  O433  1  0.04084877  0.05037049  0.99322296  1
  O  O434  1  0.99376063  0.04994318  0.99799264  1
  O  O435  1  0.00581993  0.05842529  0.05201321  1
  O  O436  1  0.90374507  0.33013063  0.94433732  1
  O  O437  1  0.90787973  0.32839489  0.11342766  1
  O  O438  1  0.95981302  0.30407339  0.01322545  1
  O  O439  1  0.41215316  0.12399165  0.09956870  1
  O  O440  1  0.40601499  0.12188264  0.93007127  1
  O  O441  1  0.33123545  0.09705476  0.03079021  1
  O  O442  1  0.70000910  0.64514160  0.93052199  1
  O  O443  1  0.70167103  0.65155377  0.09998879  1
  O  O444  1  0.72649307  0.72732115  0.99931635  1
  O  O445  1  0.71392075  0.39114420  0.55336457  1
  O  O446  1  0.69214440  0.35434185  0.55630116  1
  O  O447  1  0.65716049  0.40047210  0.47758334  1
  O  O448  1  0.69381484  0.41977730  0.48250848  1
  O  O449  1  0.63110499  0.35583387  0.48682574  1
  O  O450  1  0.65315853  0.34160210  0.47510119  1
  O  O451  1  0.67476656  0.37822523  0.51779336  1
  O  O452  1  0.64744167  0.33581170  0.54602382  1
  O  O453  1  0.63642178  0.36047612  0.55846420  1
  O  O454  1  0.69608031  0.41941562  0.55517788  1
  O  O455  1  0.65973950  0.40542062  0.54888348  1
  O  O456  1  0.69696586  0.35672834  0.48461349  1
  O  O457  1  0.71459021  0.39381164  0.48142879  1
