# generated using pymatgen
data_Zn3H194C177O22
_symmetry_space_group_name_H-M   'P 1'
_cell_length_a   59.37341808
_cell_length_b   56.51912928
_cell_length_c   33.56798896
_cell_angle_alpha   89.27357744
_cell_angle_beta   89.44666899
_cell_angle_gamma   128.07640243
_symmetry_Int_Tables_number   1
_chemical_formula_structural   Zn3H194C177O22
_chemical_formula_sum   'Zn3 H194 C177 O22'
_cell_volume   88644.11889223
_cell_formula_units_Z   1
loop_
 _symmetry_equiv_pos_site_id
 _symmetry_equiv_pos_as_xyz
  1  'x, y, z'
loop_
 _atom_site_type_symbol
 _atom_site_label
 _atom_site_symmetry_multiplicity
 _atom_site_fract_x
 _atom_site_fract_y
 _atom_site_fract_z
 _atom_site_occupancy
  Zn  Zn0  1  0.69050483  0.35227958  0.55274136  1
  Zn  Zn1  1  0.69118031  0.35282034  0.44492011  1
  Zn  Zn2  1  0.65939899  0.36548925  0.49701078  1
  H  H3  1  0.99261627  0.05817822  -0.00976240  1
  H  H4  1  0.00645979  0.06074317  0.03758783  1
  H  H5  1  0.00856158  0.03147444  0.96910001  1
  H  H6  1  0.06492853  0.07734171  0.00820909  1
  H  H7  1  0.04296771  0.04544756  0.03923139  1
  H  H8  1  0.90611039  0.34553563  0.74521793  1
  H  H9  1  0.84451167  0.29438297  0.77164663  1
  H  H10  1  0.83544149  0.26135615  0.82592116  1
  H  H11  1  0.85112811  0.24918805  0.88478619  1
  H  H12  1  0.93773690  0.32953486  0.86290172  1
  H  H13  1  0.92171785  0.34231368  0.80429754  1
  H  H14  1  0.87476993  0.23764462  0.92244928  1
  H  H15  1  0.86960209  0.26159619  0.94684301  1
  H  H16  1  0.89703360  0.30596651  0.03200415  1
  H  H17  1  0.86821167  0.27395670  0.00801994  1
  H  H18  1  0.89619524  0.30541317  0.97933386  1
  H  H19  1  0.90526419  0.23455367  0.90772273  1
  H  H20  1  0.89357620  0.20490798  0.94221221  1
  H  H21  1  0.92987456  0.22971648  0.92582671  1
  H  H22  1  0.96061881  0.28585418  0.09036023  1
  H  H23  1  0.97955260  0.28129893  0.05396201  1
  H  H24  1  0.94917530  0.24970006  0.07909345  1
  H  H25  1  0.94660951  0.22619161  0.02664488  1
  H  H26  1  0.94120671  0.22157955  0.97443067  1
  H  H27  1  0.95902487  0.20196900  0.99771487  1
  H  H28  1  0.98733240  0.18414149  -0.00411685  1
  H  H29  1  0.06474186  0.27516930  0.97886824  1
  H  H30  1  0.03586214  0.29319758  0.97869289  1
  H  H31  1  0.06386723  0.22724384  0.97528371  1
  H  H32  1  0.02556551  0.18932727  0.04485075  1
  H  H33  1  0.95400143  0.31492573  0.08038032  1
  H  H34  1  0.92938007  0.32010159  0.06259693  1
  H  H35  1  0.95017734  0.34286367  0.11885993  1
  H  H36  1  0.94430442  0.36742689  0.17326325  1
  H  H37  1  0.86693236  0.28121625  0.21291054  1
  H  H38  1  0.87239661  0.25712089  0.15727282  1
  H  H39  1  0.91981650  0.36605408  0.23089692  1
  H  H40  1  0.86142278  0.30501029  0.25274131  1
  H  H41  1  0.43887233  0.14441519  0.25069164  1
  H  H42  1  0.43633517  0.08925922  0.23405095  1
  H  H43  1  0.40797066  0.05716899  0.18205865  1
  H  H44  1  0.37694024  0.04332727  0.12498700  1
  H  H45  1  0.38164902  0.12185004  0.14171013  1
  H  H46  1  0.41314000  0.13605066  0.19883188  1
  H  H47  1  0.33780740  0.03036683  0.08773703  1
  H  H48  1  0.37107212  0.05412708  0.06186146  1
  H  H49  1  0.39580379  0.09897269  0.97376176  1
  H  H50  1  0.38726683  0.06659854  0.99845060  1
  H  H51  1  0.39541943  0.09726964  0.02641398  1
  H  H52  1  0.30234455  0.02428199  0.10022283  1
  H  H53  1  0.27984874  0.99495673  0.06683541  1
  H  H54  1  0.27212844  0.01929413  0.08157670  1
  H  H55  1  0.30811054  0.07619750  0.91425489  1
  H  H56  1  0.28310720  0.07032548  0.95064627  1
  H  H57  1  0.27747501  0.03951475  0.92665857  1
  H  H58  1  0.25216339  0.01515960  0.97909540  1
  H  H59  1  0.25099794  0.00875028  0.03123314  1
  H  H60  1  0.20957726  0.99083761  0.00710166  1
  H  H61  1  0.16114299  0.97570354  0.00479615  1
  H  H62  1  0.19435743  0.06740196  0.02320714  1
  H  H63  1  0.24367995  0.08287304  0.02534471  1
  H  H64  1  0.14387278  0.03062098  0.01450570  1
  H  H65  1  0.11767296  0.96436495  -0.00216272  1
  H  H66  1  0.34872199  0.10571186  0.92289424  1
  H  H67  1  0.37962886  0.11153425  0.94071896  1
  H  H68  1  0.38721316  0.13549143  0.88292035  1
  H  H69  1  0.42280191  0.16078371  0.82823505  1
  H  H70  1  0.39842479  0.07484405  0.79143790  1
  H  H71  1  0.36365162  0.05009861  0.84696782  1
  H  H72  1  0.44882135  0.16060338  0.77246788  1
  H  H73  1  0.42800531  0.09739752  0.74847213  1
  H  H74  1  0.65993787  0.56084957  0.75213640  1
  H  H75  1  0.70946331  0.56335925  0.78505476  1
  H  H76  1  0.74103850  0.59677057  0.82862759  1
  H  H77  1  0.75530420  0.63137941  0.88337958  1
  H  H78  1  0.68327637  0.63039276  0.86135053  1
  H  H79  1  0.66921748  0.59607553  0.80527078  1
  H  H80  1  0.76878663  0.66981431  0.91753182  1
  H  H81  1  0.74384984  0.63503502  0.94307165  1
  H  H82  1  0.70220433  0.61196156  0.03140634  1
  H  H83  1  0.73146130  0.61792942  0.00601377  1
  H  H84  1  0.70323927  0.61242081  0.97872808  1
  H  H85  1  0.77853206  0.70861459  0.90507909  1
  H  H86  1  0.80700521  0.73050016  0.93841032  1
  H  H87  1  0.78627866  0.74177191  0.92357951  1
  H  H88  1  0.73117044  0.70725474  0.09018639  1
  H  H89  1  0.73893845  0.73439801  0.05341950  1
  H  H90  1  0.76690408  0.73772205  0.07799071  1
  H  H91  1  0.79119690  0.76362705  0.02544436  1
  H  H92  1  0.79731027  0.76377711  0.97349595  1
  H  H93  1  0.81670075  0.80729407  0.99559236  1
  H  H94  1  0.83493339  0.85960430  0.99764040  1
  H  H95  1  0.74980083  0.83166795  0.97961046  1
  H  H96  1  0.73123069  0.77837122  0.97703536  1
  H  H97  1  0.78876599  0.88491741  0.98690637  1
  H  H98  1  0.84704280  0.90390260  0.01807748  1
  H  H99  1  0.70043592  0.66489777  0.08104514  1
  H  H100  1  0.69288916  0.63120736  0.06444160  1
  H  H101  1  0.67150586  0.62673193  0.12161268  1
  H  H102  1  0.64541470  0.58957653  0.17642530  1
  H  H103  1  0.72400116  0.60685108  0.21262667  1
  H  H104  1  0.74988291  0.64405419  0.15751805  1
  H  H105  1  0.64289078  0.55989985  0.22980006  1
  H  H106  1  0.69965064  0.57646907  0.26080339  1
  H  H107  1  0.86043238  0.35173278  0.76646393  1
  H  H108  1  0.83779646  0.31518727  0.70621422  1
  H  H109  1  0.82442969  0.34705398  0.73038033  1
  H  H110  1  0.72739964  0.30618791  0.58690211  1
  H  H111  1  0.75220660  0.33366442  0.64982418  1
  H  H112  1  0.76462761  0.30353702  0.61449909  1
  H  H113  1  0.75422112  0.33835564  0.55808017  1
  H  H114  1  0.77867690  0.36579744  0.62160187  1
  H  H115  1  0.79122549  0.33585564  0.58579233  1
  H  H116  1  0.89062125  0.37635623  0.73493383  1
  H  H117  1  0.86599687  0.34547188  0.67689066  1
  H  H118  1  0.85240622  0.37773187  0.70073769  1
  H  H119  1  0.47285935  0.12391990  0.28239935  1
  H  H120  1  0.47125772  0.15688540  0.32838733  1
  H  H121  1  0.51661491  0.16204414  0.32276951  1
  H  H122  1  0.58780168  0.27986141  0.45366586  1
  H  H123  1  0.59668165  0.25369152  0.40533189  1
  H  H124  1  0.54734114  0.24033415  0.41725423  1
  H  H125  1  0.58908585  0.30242099  0.41537004  1
  H  H126  1  0.60333514  0.27852149  0.36640603  1
  H  H127  1  0.55443823  0.26509920  0.37762979  1
  H  H128  1  0.49073032  0.15256827  0.24546942  1
  H  H129  1  0.48418423  0.18468030  0.29072057  1
  H  H130  1  0.52905045  0.18849695  0.28299877  1
  H  H131  1  0.47588351  0.12557096  0.71950499  1
  H  H132  1  0.49838334  0.18015310  0.73280279  1
  H  H133  1  0.51578125  0.16292412  0.67927713  1
  H  H134  1  0.61780193  0.31678665  0.62863625  1
  H  H135  1  0.60481823  0.26638284  0.61120584  1
  H  H136  1  0.58032286  0.27202508  0.66682608  1
  H  H137  1  0.59236119  0.31124413  0.59457200  1
  H  H138  1  0.57980743  0.26076407  0.57705834  1
  H  H139  1  0.55639175  0.26987935  0.63308541  1
  H  H140  1  0.45249472  0.12387951  0.68608652  1
  H  H141  1  0.47508018  0.17831680  0.69838384  1
  H  H142  1  0.49279145  0.16175548  0.64485609  1
  H  H143  1  0.63955878  0.52776792  0.29076188  1
  H  H144  1  0.68015660  0.54030519  0.33164303  1
  H  H145  1  0.63677476  0.48570436  0.33474777  1
  H  H146  1  0.71467125  0.45348213  0.44787980  1
  H  H147  1  0.66728740  0.43299775  0.41568194  1
  H  H148  1  0.70730731  0.48848878  0.41367334  1
  H  H149  1  0.72626999  0.44745695  0.40292463  1
  H  H150  1  0.67983505  0.42871375  0.37104347  1
  H  H151  1  0.72112935  0.48482254  0.36925945  1
  H  H152  1  0.64901964  0.51419419  0.25265097  1
  H  H153  1  0.69451860  0.53330428  0.29164939  1
  H  H154  1  0.64946482  0.47867627  0.29221886  1
  H  H155  1  0.68797893  0.56920811  0.68810280  1
  H  H156  1  0.65324677  0.51755091  0.67750698  1
  H  H157  1  0.70428360  0.53735705  0.65637752  1
  H  H158  1  0.65587832  0.40287802  0.57028729  1
  H  H159  1  0.70183973  0.45673176  0.58305348  1
  H  H160  1  0.65266520  0.44046117  0.59534142  1
  H  H161  1  0.66166074  0.39137040  0.61581925  1
  H  H162  1  0.70250291  0.44392453  0.63071119  1
  H  H163  1  0.64993043  0.42328324  0.64150214  1
  H  H164  1  0.70953120  0.56371487  0.71550420  1
  H  H165  1  0.65833075  0.50629500  0.72359653  1
  H  H166  1  0.70574845  0.52195826  0.70159949  1
  H  H167  1  0.88112361  0.33166545  0.31899893  1
  H  H168  1  0.83358216  0.31701400  0.29191433  1
  H  H169  1  0.84972647  0.33407424  0.36261199  1
  H  H170  1  0.71873860  0.30842580  0.37841772  1
  H  H171  1  0.76231587  0.32525447  0.41450586  1
  H  H172  1  0.75801010  0.31188670  0.34156656  1
  H  H173  1  0.73623120  0.34443251  0.35593358  1
  H  H174  1  0.77968777  0.36292641  0.40036713  1
  H  H175  1  0.77544946  0.34993594  0.32784649  1
  H  H176  1  0.89874725  0.36683942  0.29423692  1
  H  H177  1  0.85245373  0.35459995  0.27571994  1
  H  H178  1  0.86764801  0.37178219  0.34647346  1
  H  H179  1  0.04298627  0.10603958  0.96856443  1
  H  H180  1  0.05360740  0.10851219  0.01809145  1
  H  H181  1  0.00809506  0.10733061  0.03620835  1
  H  H182  1  0.05261024  0.15799875  0.97693417  1
  H  H183  1  0.00495232  0.15183456  0.97422095  1
  H  H184  1  0.00027903  0.14269542  0.02557694  1
  H  H185  1  0.08170624  0.05704626  0.97852898  1
  H  H186  1  0.04890831  0.03185533  0.95502768  1
  H  H187  1  0.03392027  0.99287020  0.01254760  1
  H  H188  1  0.09999145  0.03289611  1.00408550  1
  H  H189  1  0.09241337  0.98962968  0.03994787  1
  H  H190  1  0.05701142  0.96422770  0.01632879  1
  H  H191  1  0.95523819  0.01731032  0.03684668  1
  H  H192  1  0.97310216  0.99955258  0.03759797  1
  H  H193  1  0.93549592  0.95889814  0.99446419  1
  H  H194  1  0.90891155  0.99178106  0.00217869  1
  H  H195  1  0.87059471  0.95021304  0.96051649  1
  H  H196  1  0.88578682  0.92996287  0.96750611  1
  C  C197  1  1.01240113  0.06597784  0.00542599  1
  C  C198  1  0.02184505  0.04870093  0.99094161  1
  C  C199  1  0.04698512  0.05293353  0.00748434  1
  C  C200  1  0.88424011  0.33609135  0.75422313  1
  C  C201  1  0.86758817  0.31002711  0.77621433  1
  C  C202  1  0.87734245  0.30248942  0.80996103  1
  C  C203  1  0.85792247  0.27638211  0.83385791  1
  C  C204  1  0.86676217  0.26960289  0.86727969  1
  C  C205  1  0.89554040  0.28894886  0.87785161  1
  C  C206  1  0.91532778  0.31475338  0.85455005  1
  C  C207  1  0.90629270  0.32166123  0.82143749  1
  C  C208  1  0.88597240  0.25920453  0.93775655  1
  C  C209  1  0.90317231  0.26119939  0.97211978  1
  C  C210  1  0.91732020  0.24831504  0.96890136  1
  C  C211  1  0.93545628  0.25253385  -0.00025494  1
  C  C212  1  0.93944035  0.26947193  0.03348733  1
  C  C213  1  0.92622197  0.28338596  0.03523179  1
  C  C214  1  0.90733562  0.27867693  0.00527299  1
  C  C215  1  0.89160395  0.29169563  0.00638041  1
  C  C216  1  0.91138392  0.22861732  0.93449754  1
  C  C217  1  0.95808888  0.27190867  0.06578191  1
  C  C218  1  0.94991111  0.23809744  0.99819498  1
  C  C219  1  0.99568915  0.24909193  0.98943717  1
  C  C220  1  0.98218362  0.21839991  0.99398039  1
  C  C221  1  -0.00161182  0.20826970  0.99369931  1
  C  C222  1  0.02851099  0.22806395  0.98925841  1
  C  C223  1  0.04154993  0.25897854  0.98269868  1
  C  C224  1  0.02541090  0.26928659  0.98300297  1
  C  C225  1  0.04332142  0.21497987  0.99126789  1
  C  C226  1  0.03152740  0.18921959  0.01382259  1
  C  C227  1  0.93197422  0.30289064  0.06993719  1
  C  C228  1  0.91064156  0.29857517  0.13332054  1
  C  C229  1  0.93132962  0.32949687  0.13849199  1
  C  C230  1  0.92830550  0.34325085  0.16975194  1
  C  C231  1  0.90493311  0.32673440  0.19713946  1
  C  C232  1  0.88496990  0.29520512  0.19212110  1
  C  C233  1  0.88792602  0.28136259  0.16080093  1
  C  C234  1  0.90238709  0.34191600  0.22949729  1
  C  C235  1  0.88022768  0.32842788  0.25638632  1
  C  C236  1  0.44636935  0.13096147  0.25003232  1
  C  C237  1  0.43240627  0.10552798  0.22831898  1
  C  C238  1  0.41333703  0.09774850  0.19533341  1
  C  C239  1  0.40237832  0.07157778  0.17331362  1
  C  C240  1  0.38495498  0.06384537  0.14071802  1
  C  C241  1  0.37778433  0.08223155  0.12883827  1
  C  C242  1  0.38770927  0.10786696  0.15056465  1
  C  C243  1  0.40539518  0.11569186  0.18296061  1
  C  C244  1  0.35191851  0.05184782  0.07089456  1
  C  C245  1  0.33697482  0.05328286  0.03579245  1
  C  C246  1  0.30725866  0.03872581  0.03838060  1
  C  C247  1  0.29389864  0.04157813  0.00607348  1
  C  C248  1  0.30997954  0.05930042  0.97177600  1
  C  C249  1  0.33973609  0.07406672  0.96974978  1
  C  C250  1  0.35319668  0.07043306  1.00116920  1
  C  C251  1  0.38435473  0.08406554  0.99974249  1
  C  C252  1  0.28962726  0.01854531  0.07346452  1
  C  C253  1  0.29414271  0.06162663  0.93926114  1
  C  C254  1  0.26224908  0.02614018  0.00747383  1
  C  C255  1  0.22994701  0.03816476  0.01485689  1
  C  C256  1  0.20664115  0.00797411  0.00991856  1
  C  C257  1  0.17900757  0.99936655  0.00889776  1
  C  C258  1  0.17416292  0.02061895  0.01298803  1
  C  C259  1  0.19788037  0.05080734  0.01923955  1
  C  C260  1  0.22549413  0.05951192  0.02032547  1
  C  C261  1  0.14522360  0.01231504  0.01106603  1
  C  C262  1  0.12129312  0.98474453  0.00703771  1
  C  C263  1  0.35700407  0.09400319  0.93392844  1
  C  C264  1  0.37456601  0.09126004  0.87039148  1
  C  C265  1  0.39050291  0.12229045  0.86397287  1
  C  C266  1  0.41028405  0.13651963  0.83239627  1
  C  C267  1  0.41471074  0.12050379  0.80570250  1
  C  C268  1  0.39688937  0.08879301  0.81155681  1
  C  C269  1  0.37706317  0.07448663  0.84310614  1
  C  C270  1  0.43653389  0.13620628  0.77378298  1
  C  C271  1  0.44159351  0.12192863  0.74704627  1
  C  C272  1  0.67911028  0.56222534  0.75118023  1
  C  C273  1  0.69608900  0.57054407  0.78326316  1
  C  C274  1  0.70312170  0.59209712  0.81394662  1
  C  C275  1  0.72778151  0.60336580  0.83639039  1
  C  C276  1  0.73582172  0.62287161  0.86744855  1
  C  C277  1  0.71921098  0.63181184  0.87721372  1
  C  C278  1  0.69558279  0.62251298  0.85421815  1
  C  C279  1  0.68767202  0.60301931  0.82279682  1
  C  C280  1  0.74835580  0.65647769  0.93451930  1
  C  C281  1  0.74911892  0.67306748  0.96976623  1
  C  C282  1  0.76531738  0.70463241  0.96695832  1
  C  C283  1  0.76404177  0.71965403  0.99910324  1
  C  C284  1  0.74628604  0.70353110  0.03306214  1
  C  C285  1  0.72988915  0.67190621  0.03500578  1
  C  C286  1  0.73192036  0.65654951  0.00402218  1
  C  C287  1  0.71640134  0.62320014  0.00525053  1
  C  C288  1  0.78505721  0.72214680  0.93183649  1
  C  C289  1  0.74560351  0.72133874  0.06523997  1
  C  C290  1  0.78064403  0.75313312  0.99709157  1
  C  C291  1  0.77247357  0.78937311  0.98800073  1
  C  C292  1  0.80169551  0.81222949  0.99289706  1
  C  C293  1  0.81204854  0.84201925  0.99396328  1
  C  C294  1  0.79348693  0.84939323  0.99024862  1
  C  C295  1  0.76425808  0.82610732  0.98344884  1
  C  C296  1  0.75382303  0.79632011  0.98217394  1
  C  C297  1  0.80413284  0.88079085  0.99303169  1
  C  C298  1  0.83081401  0.90315748  1.00212573  1
  C  C299  1  0.71044597  0.65483277  0.07068030  1
  C  C300  1  0.71203832  0.63613521  0.13440595  1
  C  C301  1  0.68286097  0.62168331  0.14072283  1
  C  C302  1  0.66826230  0.60110868  0.17218378  1
  C  C303  1  0.68216473  0.59432215  0.19849273  1
  C  C304  1  0.71211202  0.61069825  0.19271843  1
  C  C305  1  0.72686210  0.63162483  0.16150547  1
  C  C306  1  0.66586799  0.57103122  0.22931768  1
  C  C307  1  0.67669535  0.56193103  0.25541156  1
  C  C308  1  0.62909174  0.31722387  0.43506212  1
  C  C309  1  0.69214368  0.40767074  0.43642192  1
  C  C310  1  0.72428968  0.34062999  0.41708415  1
  C  C311  1  0.72497092  0.34206644  0.58910937  1
  C  C312  1  0.63159022  0.32310786  0.56931137  1
  C  C313  1  0.68996730  0.40079247  0.56645364  1
  C  C314  1  0.87288492  0.35240099  0.74096590  1
  C  C315  1  0.85329970  0.33991087  0.70449894  1
  C  C316  1  0.83698265  0.35274074  0.70214611  1
  C  C317  1  0.81829667  0.34178784  0.66887189  1
  C  C318  1  0.74291364  0.33090937  0.58717965  1
  C  C319  1  0.76345558  0.34110342  0.62070838  1
  C  C320  1  0.77993754  0.32852065  0.61535410  1
  C  C321  1  0.80008952  0.33763084  0.64630265  1
  C  C322  1  0.47408273  0.14283870  0.26961345  1
  C  C323  1  0.48498799  0.16668400  0.30131271  1
  C  C324  1  0.51592512  0.18011577  0.31109354  1
  C  C325  1  0.52935164  0.20426551  0.33894633  1
  C  C326  1  0.59813748  0.29116824  0.42480553  1
  C  C327  1  0.59117509  0.26797315  0.39453187  1
  C  C328  1  0.55879575  0.24943570  0.38784568  1
  C  C329  1  0.54649733  0.22526109  0.36029240  1
  C  C330  1  0.46403307  0.13456503  0.71398933  1
  C  C331  1  0.48582204  0.16855991  0.70613715  1
  C  C332  1  0.50581130  0.17379044  0.67154199  1
  C  C333  1  0.52827796  0.20488509  0.66038523  1
  C  C334  1  0.60711250  0.30615941  0.60039896  1
  C  C335  1  0.59059077  0.27219115  0.60488527  1
  C  C336  1  0.56853295  0.26112292  0.63889292  1
  C  C337  1  0.54855877  0.22906352  0.64562038  1
  C  C338  1  0.65829330  0.53162189  0.27578269  1
  C  C339  1  0.67420873  0.52625124  0.30532353  1
  C  C340  1  0.65673045  0.49314557  0.31875320  1
  C  C341  1  0.67312760  0.48825168  0.34365851  1
  C  C342  1  0.70733887  0.43987740  0.42087241  1
  C  C343  1  0.68693725  0.44227095  0.39808772  1
  C  C344  1  0.70086166  0.47494620  0.38632501  1
  C  C345  1  0.68197585  0.47730049  0.36361142  1
  C  C346  1  0.68715699  0.55542903  0.71250058  1
  C  C347  1  0.66969882  0.52247258  0.69847564  1
  C  C348  1  0.69068054  0.51861864  0.67852515  1
  C  C349  1  0.67829518  0.49032453  0.65941982  1
  C  C350  1  0.67249888  0.40773558  0.59093510  1
  C  C351  1  0.68810752  0.43963003  0.60644380  1
  C  C352  1  0.66545183  0.44275657  0.62124882  1
  C  C353  1  0.67607569  0.47024941  0.64141441  1
  C  C354  1  0.87978309  0.34300944  0.29297907  1
  C  C355  1  0.85254467  0.34015272  0.29797881  1
  C  C356  1  0.84920293  0.34821266  0.33983611  1
  C  C357  1  0.82294708  0.34417554  0.34429124  1
  C  C358  1  0.73536858  0.33269121  0.38288363  1
  C  C359  1  0.76390421  0.33966202  0.39048319  1
  C  C360  1  0.77444696  0.33530943  0.35155183  1
  C  C361  1  0.80166252  0.34158217  0.35480874  1
  C  C362  1  0.03485345  0.10064987  -0.00029188  1
  C  C363  1  0.02384156  0.11755886  0.01147918  1
  C  C364  1  0.03401688  0.14519525  0.99734945  1
  C  C365  1  0.01681816  0.15660043  0.00217913  1
  C  C366  1  0.05881782  0.03861110  0.98465650  1
  C  C367  1  0.05548587  0.01274461  0.00365549  1
  C  C368  1  0.07830160  0.01186020  0.00979604  1
  C  C369  1  0.07541689  0.98705916  0.02321300  1
  C  C370  1  0.95578011  -0.00060481  0.02683898  1
  C  C371  1  0.93449382  0.97658599  0.00472904  1
  C  C372  1  0.90935693  0.97350713  0.99304263  1
  C  C373  1  0.88747014  0.95003702  0.97250556  1
  O  O374  1  0.90602691  0.28373094  0.90972509  1
  O  O375  1  0.91207709  0.28407756  0.10256509  1
  O  O376  1  0.98083148  0.26021668  0.99083895  1
  O  O377  1  0.36073292  0.07638059  0.09745458  1
  O  O378  1  0.35584480  0.07618038  0.90178211  1
  O  O379  1  0.25754626  0.04825780  0.01469460  1
  O  O380  1  0.72567824  0.65003810  0.90840025  1
  O  O381  1  0.72704697  0.65540220  0.10291863  1
  O  O382  1  0.76097048  0.75979329  0.98864439  1
  O  O383  1  0.69379084  0.40849573  0.53021258  1
  O  O384  1  0.69698996  0.38615574  0.58453783  1
  O  O385  1  0.64936485  0.31745714  0.42214611  1
  O  O386  1  0.63002263  0.33622232  0.45624273  1
  O  O387  1  0.66889989  0.39703614  0.45554378  1
  O  O388  1  0.70381176  0.39568404  0.42866911  1
  O  O389  1  0.71026549  0.33525949  0.55720472  1
  O  O390  1  0.72641881  0.35515731  0.61927104  1
  O  O391  1  0.68289734  0.35303212  0.49803096  1
  O  O392  1  0.72434153  0.33301498  0.45171450  1
  O  O393  1  0.71516488  0.35521760  0.40417671  1
  O  O394  1  0.64968741  0.31822193  0.57223089  1
  O  O395  1  0.63208256  0.34147059  0.54624724  1
