# generated using pymatgen
data_SiH294(C73O3)4
_symmetry_space_group_name_H-M   'P 1'
_cell_length_a   40.52226844
_cell_length_b   38.86930322
_cell_length_c   67.08355299
_cell_angle_alpha   89.26188100
_cell_angle_beta   91.30689752
_cell_angle_gamma   90.31049581
_symmetry_Int_Tables_number   1
_chemical_formula_structural   SiH294(C73O3)4
_chemical_formula_sum   'Si1 H294 C292 O12'
_cell_volume   105623.80934104
_cell_formula_units_Z   1
loop_
 _symmetry_equiv_pos_site_id
 _symmetry_equiv_pos_as_xyz
  1  'x, y, z'
loop_
 _atom_site_type_symbol
 _atom_site_label
 _atom_site_symmetry_multiplicity
 _atom_site_fract_x
 _atom_site_fract_y
 _atom_site_fract_z
 _atom_site_occupancy
  Si  Si0  1  0.53692615  0.53674335  0.51755572  1
  H  H1  1  0.97122261  0.03929889  0.02683480  1
  H  H2  1  0.07542682  0.01817329  0.02538820  1
  H  H3  1  0.02718104  0.09086087  0.99871750  1
  H  H4  1  0.01872219  0.97992627  0.99749256  1
  H  H5  1  0.01117614  0.04063774  0.09343563  1
  H  H6  1  0.02865953  0.03795049  0.94297030  1
  H  H7  1  0.64753178  0.52618475  0.57100504  1
  H  H8  1  0.53691427  0.64893752  0.46219804  1
  H  H9  1  0.49847405  0.55662141  0.48724961  1
  H  H10  1  0.54120739  0.41633558  0.47068139  1
  H  H11  1  0.41579347  0.53880952  0.55858823  1
  H  H12  1  0.58716978  0.60236099  0.51285999  1
  H  H13  1  0.48225018  0.47503414  0.50994012  1
  H  H14  1  0.56459409  0.52287473  0.48144061  1
  H  H15  1  0.51061144  0.49614275  0.54611981  1
  H  H16  1  0.48344354  0.59750398  0.52413163  1
  H  H17  1  0.60340774  0.49364451  0.51592803  1
  H  H18  1  0.55631148  0.57088001  0.55141680  1
  H  H19  1  0.84478912  0.45980492  0.63691301  1
  H  H20  1  0.84643456  0.39323411  0.61298058  1
  H  H21  1  0.88957422  0.35290291  0.62346968  1
  H  H22  1  0.94544584  0.34095627  0.63620282  1
  H  H23  1  0.95631680  0.44694821  0.65342086  1
  H  H24  1  0.90070035  0.45942016  0.63982657  1
  H  H25  1  0.00528308  0.34672619  0.63916075  1
  H  H26  1  0.98541473  0.33677205  0.66169582  1
  H  H27  1  0.00757916  0.34185135  0.71309609  1
  H  H28  1  -0.00159578  0.31492651  0.69279447  1
  H  H29  1  0.98435548  0.35804955  0.69246155  1
  H  H30  1  0.04073575  0.37187590  0.62635338  1
  H  H31  1  0.07332242  0.34164754  0.62701521  1
  H  H32  1  0.08195801  0.38628561  0.62748958  1
  H  H33  1  0.12795086  0.36628886  0.71396031  1
  H  H34  1  0.13945414  0.39476362  0.69444111  1
  H  H35  1  0.14735219  0.35027759  0.69286605  1
  H  H36  1  0.14723970  0.36148048  0.66203350  1
  H  H37  1  0.12476714  0.37252027  0.63990384  1
  H  H38  1  0.17748920  0.37850628  0.63825808  1
  H  H39  1  0.23121254  0.40205378  0.62902263  1
  H  H40  1  0.20753361  0.49878330  0.65612774  1
  H  H41  1  0.15254113  0.47514057  0.66525645  1
  H  H42  1  0.26174823  0.49082621  0.64289818  1
  H  H43  1  0.28125916  0.41875550  0.62924090  1
  H  H44  1  0.08553434  0.37304740  0.72631456  1
  H  H45  1  0.04457607  0.35749666  0.72699613  1
  H  H46  1  0.07009451  0.36115410  0.75659128  1
  H  H47  1  0.05877006  0.34082143  0.79058532  1
  H  H48  1  0.07923368  0.23651140  0.77297623  1
  H  H49  1  0.08865048  0.25709629  0.73877613  1
  H  H50  1  0.05238215  0.29604123  0.81494173  1
  H  H51  1  0.06873909  0.22222667  0.80126397  1
  H  H52  1  0.64254054  0.83617716  0.39295965  1
  H  H53  1  0.69153217  0.86033943  0.42554899  1
  H  H54  1  0.73030596  0.90380902  0.41726802  1
  H  H55  1  0.74633422  0.95575994  0.39877297  1
  H  H56  1  0.66240107  0.94245242  0.35893025  1
  H  H57  1  0.64560764  0.89073120  0.37789626  1
  H  H58  1  0.76127846  0.99282040  0.37381646  1
  H  H59  1  0.73248203  0.01337772  0.38900978  1
  H  H60  1  0.68504272  0.08999420  0.38416186  1
  H  H61  1  0.71988077  0.07122464  0.39600298  1
  H  H62  1  0.68781709  0.04479362  0.38618729  1
  H  H63  1  0.77222138  0.98316870  0.34627548  1
  H  H64  1  0.80523750  0.01268408  0.34320899  1
  H  H65  1  0.78036891  0.00022656  0.32248748  1
  H  H66  1  0.72193439  0.14455528  0.32113114  1
  H  H67  1  0.72987103  0.11370020  0.30259672  1
  H  H68  1  0.76279272  0.13404147  0.31555831  1
  H  H69  1  0.78907076  0.08924970  0.30748589  1
  H  H70  1  0.79537190  0.04433361  0.31072381  1
  H  H71  1  0.81853269  0.06416144  0.28577398  1
  H  H72  1  0.84135071  0.06555975  0.25279972  1
  H  H73  1  0.74356544  0.05155057  0.22661550  1
  H  H74  1  0.72048005  0.04943129  0.26055969  1
  H  H75  1  0.78975161  0.05718639  0.20473181  1
  H  H76  1  0.85826370  0.06903238  0.22531084  1
  H  H77  1  0.68606493  0.13494799  0.33929134  1
  H  H78  1  0.67770680  0.12142672  0.36386889  1
  H  H79  1  0.65441911  0.16899165  0.35215971  1
  H  H80  1  0.62401310  0.21717817  0.36593298  1
  H  H81  1  0.71341963  0.25397929  0.39507540  1
  H  H82  1  0.74395880  0.20520918  0.38122852  1
  H  H83  1  0.61994162  0.26515317  0.38544494  1
  H  H84  1  0.68219153  0.29399379  0.40697891  1
  H  H85  1  0.81324307  0.67605118  0.61095357  1
  H  H86  1  0.80429770  0.62184233  0.64425959  1
  H  H87  1  0.85338033  0.60685731  0.66406855  1
  H  H88  1  0.91002434  0.61952586  0.67585628  1
  H  H89  1  0.91386399  0.70682143  0.63537549  1
  H  H90  1  0.85608869  0.69572689  0.62468855  1
  H  H91  1  0.96591776  0.62843268  0.67579740  1
  H  H92  1  0.94487777  0.65691760  0.69140784  1
  H  H93  1  0.96318334  0.73610921  0.71402865  1
  H  H94  1  0.95407452  0.69193001  0.71589723  1
  H  H95  1  0.94145391  0.71552262  0.69434092  1
  H  H96  1  0.99836561  0.62740464  0.65448893  1
  H  H97  1  0.03030636  0.61051491  0.67008270  1
  H  H98  1  0.03975178  0.63491192  0.64840742  1
  H  H99  1  0.08272586  0.75362282  0.70227456  1
  H  H100  1  0.09477965  0.74082121  0.67812876  1
  H  H101  1  0.10366937  0.71454167  0.69920047  1
  H  H102  1  0.10448454  0.67110829  0.67920161  1
  H  H103  1  0.08219983  0.64700645  0.66100743  1
  H  H104  1  0.13718164  0.64179474  0.65809281  1
  H  H105  1  0.19045349  0.63556924  0.64231286  1
  H  H106  1  0.17325495  0.72911952  0.60843655  1
  H  H107  1  0.11981039  0.73594915  0.62489388  1
  H  H108  1  0.22551532  0.70144919  0.60536334  1
  H  H109  1  0.23058912  0.62640741  0.62059385  1
  H  H110  1  0.03934331  0.77545677  0.70472206  1
  H  H111  1  0.99790322  0.76730153  0.71091100  1
  H  H112  1  0.01908657  0.81455076  0.72504908  1
  H  H113  1  0.00981286  0.85553307  0.75184376  1
  H  H114  1  0.03229936  0.77630200  0.79574922  1
  H  H115  1  0.03926665  0.73457465  0.76877329  1
  H  H116  1  0.01260684  0.87095523  0.78678025  1
  H  H117  1  0.00328438  0.80868377  0.81511880  1
  H  H118  1  0.41116257  0.78797180  0.38680174  1
  H  H119  1  0.34319371  0.78797755  0.40607238  1
  H  H120  1  0.30875713  0.83745500  0.40148781  1
  H  H121  1  0.30082061  0.89803530  0.39157371  1
  H  H122  1  0.40304396  0.90484860  0.37470716  1
  H  H123  1  0.41153810  0.84450424  0.38622042  1
  H  H124  1  0.30639070  0.95575385  0.38995648  1
  H  H125  1  0.29867181  0.93404379  0.36726604  1
  H  H126  1  0.30196220  0.95490012  0.31651927  1
  H  H127  1  0.27826121  0.94477797  0.33744560  1
  H  H128  1  0.32008146  0.93196034  0.33683967  1
  H  H129  1  0.33660274  0.99018578  0.40216344  1
  H  H130  1  0.30633736  0.02278995  0.40267613  1
  H  H131  1  0.34886291  0.03362402  0.40196029  1
  H  H132  1  0.32928498  0.07978547  0.31503556  1
  H  H133  1  0.35674385  0.09262613  0.33461556  1
  H  H134  1  0.31404565  0.10090993  0.33593297  1
  H  H135  1  0.32369977  0.10161781  0.36786414  1
  H  H136  1  0.33660471  0.07824541  0.38956578  1
  H  H137  1  0.33971428  0.13634938  0.39180727  1
  H  H138  1  0.36157801  0.19135889  0.40335269  1
  H  H139  1  0.45576494  0.16836351  0.37790465  1
  H  H140  1  0.43332484  0.11283238  0.36595576  1
  H  H141  1  0.45024977  0.22174331  0.39329552  1
  H  H142  1  0.38507108  0.23839149  0.41429562  1
  H  H143  1  0.33307045  0.03555612  0.30244927  1
  H  H144  1  0.32024506  0.99207139  0.30292000  1
  H  H145  1  0.32116973  0.01354757  0.27303476  1
  H  H146  1  0.30085841  0.00101086  0.23915047  1
  H  H147  1  0.20157099  0.02520000  0.25657943  1
  H  H148  1  0.22169032  0.03359368  0.29109253  1
  H  H149  1  0.25751205  0.99893190  0.21420247  1
  H  H150  1  0.18652116  0.00359539  0.22985712  1
  H  H151  1  0.68240415  0.51588746  0.53438241  1
  H  H152  1  0.81454678  0.48859794  0.61281380  1
  H  H153  1  0.76851737  0.44472178  0.61730848  1
  H  H154  1  0.76123571  0.49707960  0.59557452  1
  H  H155  1  0.71169907  0.45915357  0.59352205  1
  H  H156  1  0.71217177  0.51094661  0.57058294  1
  H  H157  1  0.66258244  0.47156100  0.56778927  1
  H  H158  1  0.66279704  0.47901911  0.52463372  1
  H  H159  1  0.83080849  0.46352688  0.59370636  1
  H  H160  1  0.78393202  0.42147251  0.59707421  1
  H  H161  1  0.77905551  0.47568288  0.57548837  1
  H  H162  1  0.73010959  0.43418956  0.57504754  1
  H  H163  1  0.73204321  0.48694147  0.55229766  1
  H  H164  1  0.68325489  0.44683952  0.55019000  1
  H  H165  1  0.56495434  0.48991547  0.44375388  1
  H  H166  1  0.60744490  0.31037585  0.40737620  1
  H  H167  1  0.64756412  0.36058131  0.40841190  1
  H  H168  1  0.59225902  0.36295488  0.42437305  1
  H  H169  1  0.63220157  0.41306499  0.42587004  1
  H  H170  1  0.57452886  0.41452269  0.43969630  1
  H  H171  1  0.61807980  0.46570864  0.44018033  1
  H  H172  1  0.55747585  0.42830586  0.49410300  1
  H  H173  1  0.62612874  0.29337653  0.42920729  1
  H  H174  1  0.66520046  0.34371397  0.43073967  1
  H  H175  1  0.60966136  0.34674447  0.44690049  1
  H  H176  1  0.64704432  0.39800116  0.44934243  1
  H  H177  1  0.59135364  0.40332290  0.46340191  1
  H  H178  1  0.62249862  0.45627010  0.46582564  1
  H  H179  1  0.43541759  0.62574918  0.53649399  1
  H  H180  1  0.28455586  0.67987152  0.60984631  1
  H  H181  1  0.27639249  0.64852758  0.57815453  1
  H  H182  1  0.33526185  0.65834016  0.59113460  1
  H  H183  1  0.32799179  0.63196527  0.55713794  1
  H  H184  1  0.38521700  0.64262121  0.57212832  1
  H  H185  1  0.38036309  0.61882461  0.53738730  1
  H  H186  1  0.43922855  0.61814965  0.56238896  1
  H  H187  1  0.28964692  0.64080155  0.62324210  1
  H  H188  1  0.27615160  0.60843401  0.59082504  1
  H  H189  1  0.33458538  0.61694377  0.60219341  1
  H  H190  1  0.32798013  0.59053163  0.56818847  1
  H  H191  1  0.38541729  0.60029253  0.58195776  1
  H  H192  1  0.38315445  0.57679639  0.54713392  1
  H  H193  1  0.59795463  0.66585559  0.50275942  1
  H  H194  1  0.63842626  0.83391642  0.43899373  1
  H  H195  1  0.66397142  0.77726119  0.43079726  1
  H  H196  1  0.62000389  0.78148260  0.45710337  1
  H  H197  1  0.64656396  0.72341559  0.45210968  1
  H  H198  1  0.60463908  0.73058123  0.47882541  1
  H  H199  1  0.62828961  0.67044099  0.47319202  1
  H  H200  1  0.56268023  0.68416994  0.49107765  1
  H  H201  1  0.60611616  0.82622791  0.42147032  1
  H  H202  1  0.63257630  0.76958486  0.41268031  1
  H  H203  1  0.58966290  0.77118848  0.43886129  1
  H  H204  1  0.61483106  0.71306542  0.43472584  1
  H  H205  1  0.57258958  0.72087964  0.46156146  1
  H  H206  1  0.59392513  0.66194226  0.45741145  1
  H  H207  1  0.49102167  0.42724931  0.46033387  1
  H  H208  1  0.45355784  0.27420918  0.41147973  1
  H  H209  1  0.42669984  0.27326290  0.44582554  1
  H  H210  1  0.46649217  0.31968191  0.43520900  1
  H  H211  1  0.44348425  0.32393667  0.46988558  1
  H  H212  1  0.48471045  0.36687432  0.45579162  1
  H  H213  1  0.47382906  0.37988862  0.49079853  1
  H  H214  1  0.46001982  0.45006825  0.47244194  1
  H  H215  1  0.41816019  0.29466155  0.40164857  1
  H  H216  1  0.39365202  0.29732916  0.43531142  1
  H  H217  1  0.43321756  0.34426793  0.42560728  1
  H  H218  1  0.41097749  0.34972467  0.46017527  1
  H  H219  1  0.45148038  0.39267500  0.44724956  1
  H  H220  1  0.43616742  0.40021458  0.48406851  1
  H  H221  1  0.44648115  0.46108553  0.54387937  1
  H  H222  1  0.28685316  0.45978276  0.59735654  1
  H  H223  1  0.33517474  0.42494235  0.60747750  1
  H  H224  1  0.34183277  0.47351925  0.58268992  1
  H  H225  1  0.38956355  0.43512578  0.59350839  1
  H  H226  1  0.39091009  0.48275587  0.56677569  1
  H  H227  1  0.43829230  0.43857434  0.57652293  1
  H  H228  1  0.44996171  0.55062488  0.57352514  1
  H  H229  1  0.29804759  0.49232594  0.61421137  1
  H  H230  1  0.34557751  0.45338002  0.62698034  1
  H  H231  1  0.35260927  0.50160848  0.60226717  1
  H  H232  1  0.40202925  0.46630242  0.61113558  1
  H  H233  1  0.40937185  0.50975312  0.58484146  1
  H  H234  1  0.45780535  0.47381372  0.58819488  1
  H  H235  1  0.46959852  0.63789651  0.48096348  1
  H  H236  1  0.42334559  0.77887540  0.42510579  1
  H  H237  1  0.44372924  0.73387699  0.40108547  1
  H  H238  1  0.45358580  0.72985988  0.43775735  1
  H  H239  1  0.47230436  0.67839203  0.41897040  1
  H  H240  1  0.47704149  0.68113513  0.45615885  1
  H  H241  1  0.49459901  0.62563593  0.44117354  1
  H  H242  1  0.45948932  0.59535858  0.47514003  1
  H  H243  1  0.38547582  0.75683562  0.42639418  1
  H  H244  1  0.40577083  0.71166926  0.40334909  1
  H  H245  1  0.41450539  0.71056426  0.44080693  1
  H  H246  1  0.43248007  0.65985674  0.42070207  1
  H  H247  1  0.43654121  0.66503698  0.45827222  1
  H  H248  1  0.45361688  0.61007355  0.44189639  1
  H  H249  1  0.60269319  0.58487249  0.58753764  1
  H  H250  1  0.75243087  0.65568820  0.63553212  1
  H  H251  1  0.75781585  0.61285920  0.60779815  1
  H  H252  1  0.70265085  0.63450934  0.61792399  1
  H  H253  1  0.70568156  0.59274552  0.59037759  1
  H  H254  1  0.65077711  0.61856552  0.60096326  1
  H  H255  1  0.66166922  0.57139645  0.57652778  1
  H  H256  1  0.59790896  0.61041117  0.56574045  1
  H  H257  1  0.75490735  0.68978677  0.61796751  1
  H  H258  1  0.76103736  0.64694416  0.59033822  1
  H  H259  1  0.70574397  0.66910694  0.60068469  1
  H  H260  1  0.70924808  0.62648491  0.57274657  1
  H  H261  1  0.65359074  0.64856595  0.58098938  1
  H  H262  1  0.65659480  0.60095046  0.55678544  1
  H  H263  1  0.97522698  0.05037209  0.12117919  1
  H  H264  1  0.03545768  0.06965775  0.07426125  1
  H  H265  1  0.92738411  0.04431834  0.05234032  1
  H  H266  1  0.89081888  0.04793048  0.08120190  1
  H  H267  1  0.93124338  0.06218959  0.17262870  1
  H  H268  1  0.90514882  0.06622464  0.20533454  1
  H  H269  1  0.80880893  0.06488939  0.17620775  1
  H  H270  1  0.83519446  0.06007061  0.14380575  1
  H  H271  1  0.98294642  0.13383859  0.91759791  1
  H  H272  1  0.97750169  0.09818166  0.94805806  1
  H  H273  1  0.08278180  0.10505879  0.95863316  1
  H  H274  1  0.08792210  0.13972444  0.92783086  1
  H  H275  1  0.99412775  0.19520477  0.86065695  1
  H  H276  1  1.00156889  0.22762497  0.82930527  1
  H  H277  1  0.10678104  0.22945902  0.84057243  1
  H  H278  1  0.09887237  0.19836109  0.87235097  1
  H  H279  1  0.16223579  0.01698527  0.08467203  1
  H  H280  1  0.12826277  0.02549508  0.05392674  1
  H  H281  1  0.04272385  0.00016920  0.08743228  1
  H  H282  1  0.07438420  0.00861070  0.11926095  1
  H  H283  1  0.21639873  0.00207054  0.14947946  1
  H  H284  1  0.24033755  0.99921440  0.18340781  1
  H  H285  1  0.14237309  0.00514834  0.20729253  1
  H  H286  1  0.11887214  0.00881093  0.17313461  1
  H  H287  1  0.97233232  0.91944574  0.93097676  1
  H  H288  1  0.97841523  0.95002617  0.96295191  1
  H  H289  1  0.06938906  -0.00468369  0.94293425  1
  H  H290  1  0.06573093  0.96028111  0.91227845  1
  H  H291  1  0.96346521  0.87171025  0.86959467  1
  H  H292  1  0.96243612  0.83893977  0.83823206  1
  H  H293  1  0.05306644  0.88875675  0.82112026  1
  H  H294  1  0.05551194  0.91862242  0.85328439  1
  C  C295  1  0.99541613  0.03962641  0.03427532  1
  C  C296  1  0.02420371  0.03461486  0.02324531  1
  C  C297  1  0.05426236  0.02733138  0.03349912  1
  C  C298  1  0.05673356  0.03354008  0.05402316  1
  C  C299  1  0.03065297  0.05139339  0.06229558  1
  C  C300  1  0.99857359  0.04609204  0.05485377  1
  C  C301  1  0.02349510  0.03521418  0.00058205  1
  C  C302  1  0.02610447  0.06698899  0.99035955  1
  C  C303  1  0.02743571  0.06799174  0.96952561  1
  C  C304  1  0.02726210  0.03720073  0.95914577  1
  C  C305  1  0.02362335  0.00554893  0.96888589  1
  C  C306  1  0.02121213  0.00458164  0.98973017  1
  C  C307  1  0.60519027  0.55627595  0.56068031  1
  C  C308  1  0.51110494  0.60709438  0.47692295  1
  C  C309  1  0.51664472  0.57730841  0.48796699  1
  C  C310  1  0.54393553  0.57530903  0.50094084  1
  C  C311  1  0.56694443  0.60308641  0.50187524  1
  C  C312  1  0.56400988  0.63047882  0.48795729  1
  C  C313  1  0.53776327  0.62962506  0.47415586  1
  C  C314  1  0.50714993  0.44433477  0.48820443  1
  C  C315  1  0.50417067  0.47177797  0.50102285  1
  C  C316  1  0.52949262  0.49793918  0.50103284  1
  C  C317  1  0.55057720  0.49961238  0.48486155  1
  C  C318  1  0.55540894  0.47046392  0.47338304  1
  C  C319  1  0.54114503  0.43726089  0.48153050  1
  C  C320  1  0.44988055  0.57453621  0.54493183  1
  C  C321  1  0.44254229  0.54405943  0.55784911  1
  C  C322  1  0.46133303  0.51243136  0.55239874  1
  C  C323  1  0.49264305  0.51683615  0.54435557  1
  C  C324  1  0.49993344  0.54609276  0.53324173  1
  C  C325  1  0.47761654  0.57504346  0.53336766  1
  C  C326  1  0.62924623  0.53072722  0.55908129  1
  C  C327  1  0.63158546  0.51132254  0.54183464  1
  C  C328  1  0.60397127  0.51042614  0.52881624  1
  C  C329  1  0.57563556  0.53025237  0.53317066  1
  C  C330  1  0.57673502  0.55353639  0.54888031  1
  C  C331  1  0.84002439  0.44428895  0.62366325  1
  C  C332  1  0.85712412  0.41447522  0.62152157  1
  C  C333  1  0.88984815  0.40721661  0.63042961  1
  C  C334  1  0.90399645  0.37396161  0.62988416  1
  C  C335  1  0.93572131  0.36696119  0.63739345  1
  C  C336  1  0.95481224  0.39311329  0.64611577  1
  C  C337  1  0.94151854  0.42626330  0.64689118  1
  C  C338  1  0.90986360  0.43316003  0.63921340  1
  C  C339  1  0.00218366  0.35537749  0.65456841  1
  C  C340  1  0.03510471  0.35769443  0.66574823  1
  C  C341  1  0.06452000  0.36466566  0.65541728  1
  C  C342  1  0.09465539  0.36749607  0.66635365  1
  C  C343  1  0.09604496  0.36419418  0.68737576  1
  C  C344  1  0.06662776  0.35689325  0.69752693  1
  C  C345  1  0.03643889  0.35251563  0.68677937  1
  C  C346  1  0.00531112  0.34149842  0.69682351  1
  C  C347  1  0.06505009  0.36637697  0.63305851  1
  C  C348  1  0.12904728  0.36911819  0.69773942  1
  C  C349  1  0.12611229  0.37652786  0.65609033  1
  C  C350  1  0.16249023  0.42496251  0.65333783  1
  C  C351  1  0.18422147  0.40447870  0.64281731  1
  C  C352  1  0.21474272  0.41770620  0.63772272  1
  C  C353  1  0.22441279  0.45120743  0.64347916  1
  C  C354  1  0.20108691  0.47215430  0.65289107  1
  C  C355  1  0.17041771  0.45912901  0.65784986  1
  C  C356  1  0.25658211  0.46425008  0.63861238  1
  C  C357  1  0.27864857  0.44671004  0.62774236  1
  C  C358  1  0.06845376  0.35368264  0.71994074  1
  C  C359  1  0.07711197  0.30990109  0.74508109  1
  C  C360  1  0.07035019  0.33362871  0.75992538  1
  C  C361  1  0.06480643  0.32213999  0.77926278  1
  C  C362  1  0.06666830  0.28687665  0.78465399  1
  C  C363  1  0.07617743  0.26381283  0.76957893  1
  C  C364  1  0.08156201  0.27524025  0.75016985  1
  C  C365  1  0.05932944  0.27561624  0.80486283  1
  C  C366  1  0.06142985  0.24251115  0.81146900  1
  C  C367  1  0.65124109  0.84089437  0.40823250  1
  C  C368  1  0.67656258  0.86331233  0.41187175  1
  C  C369  1  0.68635066  0.89286681  0.39949481  1
  C  C370  1  0.71487971  0.91231751  0.40464426  1
  C  C371  1  0.72398555  0.94194447  0.39416234  1
  C  C372  1  0.70466096  0.95351420  0.37791193  1
  C  C373  1  0.67705181  0.93406378  0.37192215  1
  C  C374  1  0.66782483  0.90460386  0.38261878  1
  C  C375  1  0.73741599  0.00630884  0.37351718  1
  C  C376  1  0.73817643  0.03735527  0.35964537  1
  C  C377  1  0.75729320  0.03641356  0.34227493  1
  C  C378  1  0.75704722  0.06508671  0.32908390  1
  C  C379  1  0.73768338  0.09442090  0.33270521  1
  C  C380  1  0.71892770  0.09519610  0.35018888  1
  C  C381  1  0.71967104  0.06721620  0.36393255  1
  C  C382  1  0.70214614  0.06840471  0.38338733  1
  C  C383  1  0.77963786  0.00667856  0.33836038  1
  C  C384  1  0.73787811  0.12305234  0.31738857  1
  C  C385  1  0.77645315  0.06448474  0.31031343  1
  C  C386  1  0.76772964  0.05776634  0.27525887  1
  C  C387  1  0.80172440  0.06177650  0.27294422  1
  C  C388  1  0.81472518  0.06250761  0.25401863  1
  C  C389  1  0.79425443  0.05935473  0.23672140  1
  C  C390  1  0.75994624  0.05450600  0.23959901  1
  C  C391  1  0.74686518  0.05346695  0.25856281  1
  C  C392  1  0.80772606  0.06049765  0.21690773  1
  C  C393  1  0.84050249  0.06475759  0.21313676  1
  C  C394  1  0.69780640  0.12628831  0.35346303  1
  C  C395  1  0.70074498  0.18255623  0.36717102  1
  C  C396  1  0.66732936  0.18680743  0.36206158  1
  C  C397  1  0.65026483  0.21443978  0.36949097  1
  C  C398  1  0.66581764  0.23885363  0.38204364  1
  C  C399  1  0.70019176  0.23522780  0.38592026  1
  C  C400  1  0.71749807  0.20770393  0.37825969  1
  C  C401  1  0.64585350  0.26575425  0.39038852  1
  C  C402  1  0.65591881  0.28989310  0.40366950  1
  C  C403  1  0.80032082  0.66297600  0.62304594  1
  C  C404  1  0.81685278  0.64317603  0.63675711  1
  C  C405  1  0.85051608  0.64980110  0.64323216  1
  C  C406  1  0.86654940  0.62891139  0.65785651  1
  C  C407  1  0.89845629  0.63615161  0.66452874  1
  C  C408  1  0.91536489  0.66437217  0.65639055  1
  C  C409  1  0.90029759  0.68510743  0.64166157  1
  C  C410  1  0.86802943  0.67837795  0.63544647  1
  C  C411  1  0.96222673  0.65584297  0.67901892  1
  C  C412  1  0.99422517  0.67451247  0.68333733  1
  C  C413  1  0.02313654  0.66488893  0.67340921  1
  C  C414  1  0.05258933  0.68393981  0.67660269  1
  C  C415  1  0.05255403  0.71301450  0.68921472  1
  C  C416  1  0.02293914  0.72349692  0.69812072  1
  C  C417  1  0.99372612  0.70380710  0.69568483  1
  C  C418  1  0.96176400  0.71240753  0.70543048  1
  C  C419  1  0.02286429  0.63309752  0.66092933  1
  C  C420  1  0.08478410  0.73160349  0.69237947  1
  C  C421  1  0.08468140  0.67264627  0.66763772  1
  C  C422  1  0.12516560  0.69012284  0.64313149  1
  C  C423  1  0.14497602  0.66149933  0.64744975  1
  C  C424  1  0.17519801  0.65763291  0.63811085  1
  C  C425  1  0.18661585  0.68168512  0.62378940  1
  C  C426  1  0.16562648  0.70996360  0.61942858  1
  C  C427  1  0.13550795  0.71402581  0.62875160  1
  C  C428  1  0.21878429  0.67884572  0.61429151  1
  C  C429  1  0.23966100  0.65148231  0.61550489  1
  C  C430  1  0.02253020  0.75557566  0.71057907  1
  C  C431  1  0.02824974  0.77133481  0.74522101  1
  C  C432  1  0.02084780  0.80566493  0.74051824  1
  C  C433  1  0.01637055  0.82906348  0.75570830  1
  C  C434  1  0.01930198  0.81928909  0.77604450  1
  C  C435  1  0.02817452  0.78465315  0.78033461  1
  C  C436  1  0.03253955  0.76110938  0.76518241  1
  C  C437  1  0.01455295  0.84415634  0.79172703  1
  C  C438  1  0.00941683  0.83535713  0.81113276  1
  C  C439  1  0.39385771  0.78362324  0.39888892  1
  C  C440  1  0.36453326  0.80038729  0.39926807  1
  C  C441  1  0.36003784  0.83574926  0.39321943  1
  C  C442  1  0.32919946  0.85202385  0.39520991  1
  C  C443  1  0.32473859  0.88606354  0.38949372  1
  C  C444  1  0.35131312  0.90471974  0.38175502  1
  C  C445  1  0.38250734  0.88973728  0.38044666  1
  C  C446  1  0.38699099  0.85575644  0.38646641  1
  C  C447  1  0.31528397  0.95263862  0.37468659  1
  C  C448  1  0.31762056  0.98628093  0.36351667  1
  C  C449  1  0.32722875  0.01636482  0.37381370  1
  C  C450  1  0.33153462  0.04735076  0.36290341  1
  C  C451  1  0.32736970  0.04782976  0.34184812  1
  C  C452  1  0.31927994  0.01707764  0.33175546  1
  C  C453  1  0.31338068  0.98624666  0.34250961  1
  C  C454  1  0.30303525  0.95307469  0.33280319  1
  C  C455  1  0.33009587  0.01569064  0.39616292  1
  C  C456  1  0.33214008  0.08170193  0.33124323  1
  C  C457  1  0.33978951  0.08055295  0.37336744  1
  C  C458  1  0.38485418  0.12121184  0.37753929  1
  C  C459  1  0.36509694  0.14327583  0.38838547  1
  C  C460  1  0.37778657  0.17457048  0.39517041  1
  C  C461  1  0.41069788  0.18483283  0.39155743  1
  C  C462  1  0.43020544  0.16156312  0.38085417  1
  C  C463  1  0.41766193  0.13035121  0.37403088  1
  C  C464  1  0.42488059  0.21766423  0.39808839  1
  C  C465  1  0.41042289  0.24195331  0.40937315  1
  C  C466  1  0.31565074  0.01740378  0.30938013  1
  C  C467  1  0.27234790  0.02242581  0.28451462  1
  C  C468  1  0.29472088  0.01432838  0.26972338  1
  C  C469  1  0.28328036  0.00816567  0.25042589  1
  C  C470  1  0.24943318  0.01086149  0.24502646  1
  C  C471  1  0.22761288  0.02104171  0.26014585  1
  C  C472  1  0.23886667  0.02638749  0.27959278  1
  C  C473  1  0.23815629  0.00452380  0.22469981  1
  C  C474  1  0.20572409  0.00419084  0.21873844  1
  C  C475  1  0.66479101  0.49490513  0.53809033  1
  C  C476  1  0.81755736  0.46179451  0.60796007  1
  C  C477  1  0.78229002  0.44738384  0.60340302  1
  C  C478  1  0.76349370  0.47163948  0.58861184  1
  C  C479  1  0.72873156  0.46049217  0.58094016  1
  C  C480  1  0.71435307  0.48479222  0.56453296  1
  C  C481  1  0.68044717  0.47326196  0.55566622  1
  C  C482  1  0.57444488  0.47386920  0.45613375  1
  C  C483  1  0.63136926  0.30886965  0.41560298  1
  C  C484  1  0.64204563  0.34487513  0.42178460  1
  C  C485  1  0.61537644  0.36215587  0.43344571  1
  C  C486  1  0.62505068  0.39836255  0.43932610  1
  C  C487  1  0.59704782  0.41645446  0.44919747  1
  C  C488  1  0.60501437  0.45448564  0.45292066  1
  C  C489  1  0.42973586  0.60665058  0.54826218  1
  C  C490  1  0.27600123  0.65285599  0.61051089  1
  C  C491  1  0.28684725  0.63454611  0.59120917  1
  C  C492  1  0.32470928  0.63227074  0.58945439  1
  C  C493  1  0.33778316  0.61686536  0.56997095  1
  C  C494  1  0.37597162  0.61629511  0.56938589  1
  C  C495  1  0.39122639  0.60347576  0.54981033  1
  C  C496  1  0.58233517  0.66472117  0.48913259  1
  C  C497  1  0.63273772  0.82186084  0.42447738  1
  C  C498  1  0.63784266  0.78238543  0.42696745  1
  C  C499  1  0.61576339  0.76690143  0.44325871  1
  C  C500  1  0.62039473  0.72825430  0.44818255  1
  C  C501  1  0.59871663  0.71540061  0.46540365  1
  C  C502  1  0.60200247  0.67667147  0.47059947  1
  C  C503  1  0.47922064  0.43033797  0.47496444  1
  C  C504  1  0.42665142  0.27627606  0.41346122  1
  C  C505  1  0.42021951  0.29217324  0.43399020  1
  C  C506  1  0.44016801  0.32541196  0.43740776  1
  C  C507  1  0.43691299  0.34256934  0.45793044  1
  C  C508  1  0.45935580  0.37473682  0.45932624  1
  C  C509  1  0.46134537  0.39519514  0.47901970  1
  C  C510  1  0.45067145  0.47862699  0.55638835  1
  C  C511  1  0.29864805  0.46416654  0.61221646  1
  C  C512  1  0.33420541  0.45217069  0.61187930  1
  C  C513  1  0.35354863  0.47440372  0.59772457  1
  C  C514  1  0.38897332  0.46295867  0.59666841  1
  C  C515  1  0.40640988  0.48258179  0.58052354  1
  C  C516  1  0.43994835  0.46681685  0.57614555  1
  C  C517  1  0.47648462  0.61634856  0.47112960  1
  C  C518  1  0.40597402  0.76256498  0.41625988  1
  C  C519  1  0.42310331  0.72913732  0.41121102  1
  C  C520  1  0.43530074  0.71264803  0.43044377  1
  C  C521  1  0.45018303  0.67735355  0.42825773  1
  C  C522  1  0.45863926  0.66394418  0.44891526  1
  C  C523  1  0.47139225  0.62747608  0.44931055  1
  C  C524  1  0.61178278  0.58846506  0.57224564  1
  C  C525  1  0.76357092  0.66342434  0.62125569  1
  C  C526  1  0.75027447  0.63972796  0.60478296  1
  C  C527  1  0.71318075  0.64214691  0.60346043  1
  C  C528  1  0.69859243  0.61977572  0.58732600  1
  C  C529  1  0.66129076  0.62267300  0.58605634  1
  C  C530  1  0.64869318  0.59518688  0.57213853  1
  C  C531  1  0.93033211  0.05090105  0.10322969  1
  C  C532  1  0.96491541  0.04918148  0.10601859  1
  C  C533  1  0.98533230  0.04586231  0.09013421  1
  C  C534  1  0.97284927  0.04672060  0.07013623  1
  C  C535  1  0.93826893  0.04623161  0.06728162  1
  C  C536  1  0.91753141  0.04821350  0.08349563  1
  C  C537  1  0.91120922  0.05417125  0.12044224  1
  C  C538  1  0.89846688  0.05704709  0.13671717  1
  C  C539  1  0.88493787  0.06007243  0.15578835  1
  C  C540  1  0.90442121  0.06239456  0.17357920  1
  C  C541  1  0.88978807  0.06456043  0.19184331  1
  C  C542  1  0.85491989  0.06406040  0.19363675  1
  C  C543  1  0.83557608  0.06327669  0.17570082  1
  C  C544  1  0.85020479  0.06111294  0.15747863  1
  C  C545  1  0.03590137  0.13899210  0.92017840  1
  C  C546  1  0.00474499  0.12742198  0.92668598  1
  C  C547  1  1.00182289  0.10730864  0.94374067  1
  C  C548  1  0.02975098  0.09863997  0.95555529  1
  C  C549  1  0.06070065  0.11122239  0.94973900  1
  C  C550  1  0.06368796  0.13090908  0.93250448  1
  C  C551  1  0.03899384  0.15814072  0.90222448  1
  C  C552  1  0.04200418  0.17465008  0.88665571  1
  C  C553  1  0.04597731  0.19356837  0.86873754  1
  C  C554  1  0.01879651  0.20293324  0.85618645  1
  C  C555  1  0.02313271  0.22079284  0.83850195  1
  C  C556  1  0.05502508  0.22941812  0.83186950  1
  C  C557  1  0.08204379  0.22149826  0.84478879  1
  C  C558  1  0.07768520  0.20446295  0.86267547  1
  C  C559  1  0.12100532  0.01390977  0.10442948  1
  C  C560  1  0.13539906  0.01713813  0.08542206  1
  C  C561  1  0.11617998  0.02146493  0.06809960  1
  C  C562  1  0.08162486  0.02121413  0.06916144  1
  C  C563  1  0.06791531  0.01017060  0.08741771  1
  C  C564  1  0.08634206  0.01044461  0.10486820  1
  C  C565  1  0.13938616  0.01202973  0.12258917  1
  C  C566  1  0.15270377  0.00981880  0.13914203  1
  C  C567  1  0.16606545  0.00703193  0.15870716  1
  C  C568  1  0.20046063  0.00347354  0.16231785  1
  C  C569  1  0.21373884  1.00197710  0.18142143  1
  C  C570  1  0.19327496  1.00371020  0.19831917  1
  C  C571  1  0.15868146  0.00515221  0.19461940  1
  C  C572  1  0.14550951  0.00703750  0.17555936  1
  C  C573  1  0.01770497  0.93920175  0.91881810  1
  C  C574  1  0.99392117  0.93560578  0.93388501  1
  C  C575  1  0.99720106  0.95312584  0.95169683  1
  C  C576  1  0.02337261  0.97659706  0.95455483  1
  C  C577  1  0.04830896  0.97834341  0.94027831  1
  C  C578  1  0.04621335  0.95912506  0.92319760  1
  C  C579  1  0.01448303  0.92361186  0.89996534  1
  C  C580  1  0.01234319  0.91082875  0.88337450  1
  C  C581  1  0.01075092  0.89559652  0.86440290  1
  C  C582  1  0.98368167  0.87406750  0.85921169  1
  C  C583  1  0.98325787  0.85577938  0.84179334  1
  C  C584  1  0.00889658  0.85907609  0.82791152  1
  C  C585  1  0.03384643  0.88396506  0.83191785  1
  C  C586  1  0.03520079  0.90100077  0.84985493  1
  O  O587  1  0.98605670  0.38902433  0.65389889  1
  O  O588  1  0.08035082  0.31950071  0.72562840  1
  O  O589  1  0.13292463  0.41290497  0.65961667  1
  O  O590  1  0.71163365  0.98228764  0.36682851  1
  O  O591  1  0.71785571  0.15450874  0.36138960  1
  O  O592  1  0.75383528  0.05789113  0.29351855  1
  O  O593  1  0.94699421  0.67271265  0.66159926  1
  O  O594  1  0.03261964  0.74706934  0.73106056  1
  O  O595  1  0.09582606  0.69640095  0.65199800  1
  O  O596  1  0.34841436  0.93804078  0.37567586  1
  O  O597  1  0.28208146  0.02753572  0.30378770  1
  O  O598  1  0.37401028  0.09069410  0.36992738  1
