# generated using pymatgen
data_H126C149(NO)6
_symmetry_space_group_name_H-M   'P 1'
_cell_length_a   62.58538281
_cell_length_b   38.68732371
_cell_length_c   36.47756344
_cell_angle_alpha   90.37015554
_cell_angle_beta   88.69949826
_cell_angle_gamma   83.91575553
_symmetry_Int_Tables_number   1
_chemical_formula_structural   H126C149(NO)6
_chemical_formula_sum   'H252 C298 N12 O12'
_cell_volume   87798.08108472
_cell_formula_units_Z   2
loop_
 _symmetry_equiv_pos_site_id
 _symmetry_equiv_pos_as_xyz
  1  'x, y, z'
loop_
 _atom_site_type_symbol
 _atom_site_label
 _atom_site_symmetry_multiplicity
 _atom_site_fract_x
 _atom_site_fract_y
 _atom_site_fract_z
 _atom_site_occupancy
  H  H0  1  0.98505242  0.06200460  0.04290525  1
  H  H1  1  0.02064095  0.94145517  0.03560917  1
  H  H2  1  0.58427859  0.56055644  0.64073428  1
  H  H3  1  0.56225390  0.53175651  0.59487637  1
  H  H4  1  0.58500382  0.47237332  0.71191358  1
  H  H5  1  0.41430191  0.43756617  0.63605136  1
  H  H6  1  0.43719156  0.46669760  0.59033755  1
  H  H7  1  0.41706508  0.52154505  0.71348262  1
  H  H8  1  0.47384850  0.64786407  0.44086949  1
  H  H9  1  0.47352470  0.59846279  0.48520392  1
  H  H10  1  0.43913859  0.59357968  0.36197189  1
  H  H11  1  0.53115921  0.36731110  0.43266143  1
  H  H12  1  0.53251195  0.41428744  0.47994130  1
  H  H13  1  0.57171500  0.41832726  0.35800478  1
  H  H14  1  0.42282164  0.44059071  0.43229008  1
  H  H15  1  0.44454628  0.47022101  0.47819506  1
  H  H16  1  0.42149131  0.52839193  0.36048092  1
  H  H17  1  0.59194746  0.56636975  0.43655554  1
  H  H18  1  0.56914715  0.53692246  0.48210984  1
  H  H19  1  0.58928493  0.48284836  0.35861356  1
  H  H20  1  0.53188118  0.35436146  0.63071077  1
  H  H21  1  0.53269286  0.40376081  0.58666652  1
  H  H22  1  0.56684132  0.40761711  0.71008393  1
  H  H23  1  0.47512941  0.63670832  0.63787248  1
  H  H24  1  0.47382656  0.58906438  0.59133363  1
  H  H25  1  0.43422172  0.58685911  0.71300725  1
  H  H26  1  0.51645884  0.48583804  0.59519956  1
  H  H27  1  0.48682383  0.50889174  0.59579114  1
  H  H28  1  0.48989955  0.51625453  0.47701903  1
  H  H29  1  0.51949595  0.49369135  0.47647762  1
  H  H30  1  0.57533958  0.45657084  0.53573503  1
  H  H31  1  0.43108181  0.54626084  0.53632102  1
  H  H32  1  0.29265472  0.47576598  0.28599865  1
  H  H33  1  0.32989297  0.42792303  0.24968571  1
  H  H34  1  0.32247201  0.39006004  0.20342425  1
  H  H35  1  0.30082720  0.37268118  0.15267463  1
  H  H36  1  0.25269047  0.45829027  0.17846323  1
  H  H37  1  0.27438804  0.47566422  0.22999287  1
  H  H38  1  0.27276161  0.35448265  0.12303409  1
  H  H39  1  0.28770274  0.38408160  0.09937390  1
  H  H40  1  0.28051804  0.43458327  0.01993703  1
  H  H41  1  0.29441958  0.39929282  0.04252464  1
  H  H42  1  0.28083982  0.43411003  0.06841685  1
  H  H43  1  0.24302756  0.34539895  0.13620040  1
  H  H44  1  0.24276704  0.30970192  0.10566012  1
  H  H45  1  0.21850988  0.33493192  0.11888155  1
  H  H46  1  0.21423206  0.39748761  0.96574572  1
  H  H47  1  0.19461023  0.38768973  -0.00099046  1
  H  H48  1  0.21114223  0.35397446  0.97638028  1
  H  H49  1  0.20432959  0.32454917  0.02420115  1
  H  H50  1  0.20711747  0.31877497  0.07219348  1
  H  H51  1  0.18252064  0.29172632  0.04846697  1
  H  H52  1  0.14870503  0.26563830  0.04590003  1
  H  H53  1  0.11312431  0.36650987  0.06439855  1
  H  H54  1  0.14749713  0.39275163  0.06820055  1
  H  H55  1  0.09397976  0.31205621  0.06322144  1
  H  H56  1  0.11653594  0.25715650  0.01082030  1
  H  H57  1  0.23151142  0.43640916  0.97513980  1
  H  H58  1  0.25677934  0.44594558  0.99066497  1
  H  H59  1  0.24916388  0.47235820  0.93870813  1
  H  H60  1  0.26753285  0.50239841  0.89013703  1
  H  H61  1  0.30232583  0.40477293  0.85551272  1
  H  H62  1  0.28318043  0.37449517  0.90372252  1
  H  H63  1  0.29920148  0.50167532  0.84572095  1
  H  H64  1  0.30132609  0.43341482  0.80158563  1
  H  H65  1  0.60995125  0.21113814  0.80128886  1
  H  H66  1  0.56765175  0.18078507  0.82018869  1
  H  H67  1  0.57455474  0.13202097  0.86587208  1
  H  H68  1  0.59420367  0.10738311  0.91874048  1
  H  H69  1  0.63991289  0.18276781  0.90610972  1
  H  H70  1  0.61853621  0.21071765  0.85638954  1
  H  H71  1  0.62128149  0.08345003  0.95995255  1
  H  H72  1  0.60560402  0.11982670  0.97987270  1
  H  H73  1  0.60886930  0.16781598  0.06166533  1
  H  H74  1  0.59742209  0.13469889  0.03809740  1
  H  H75  1  0.60845531  0.16796172  0.01319765  1
  H  H76  1  0.65344812  0.07459392  0.94282797  1
  H  H77  1  0.65715113  0.03829775  0.97226550  1
  H  H78  1  0.67917157  0.06108471  0.95915014  1
  H  H79  1  0.67912148  0.12378367  0.11326016  1
  H  H80  1  0.69939982  0.11410993  0.07884990  1
  H  H81  1  0.68722080  0.08037180  0.10071391  1
  H  H82  1  0.69686788  0.05115107  0.05183539  1
  H  H83  1  0.69424743  0.04644781  0.00371886  1
  H  H84  1  0.72301233  0.01953267  0.02518401  1
  H  H85  1  0.75974658  -0.00599418  0.03073733  1
  H  H86  1  0.78205129  0.09564092  0.01784460  1
  H  H87  1  0.74421749  0.12154472  0.01408293  1
  H  H88  1  0.80892724  0.04549578  0.02449892  1
  H  H89  1  0.78985419  0.97476038  0.02978298  1
  H  H90  1  0.65864800  0.16274730  0.10502872  1
  H  H91  1  0.63239730  0.17668202  0.09097376  1
  H  H92  1  0.64542703  0.19746231  0.14412487  1
  H  H93  1  0.62902891  0.23278503  0.19544588  1
  H  H94  1  0.59439239  0.14735410  0.23025197  1
  H  H95  1  0.61051221  0.11220475  0.17770953  1
  H  H96  1  0.60610756  0.24227466  0.24512081  1
  H  H97  1  0.57502081  0.18834244  0.26652682  1
  H  H98  1  0.39735599  0.79586808  0.79873182  1
  H  H99  1  0.44048592  0.82175108  0.81866974  1
  H  H100  1  0.43358458  0.87034462  0.86732267  1
  H  H101  1  0.41357026  0.89335673  0.92241177  1
  H  H102  1  0.36733253  0.81948347  0.90757376  1
  H  H103  1  0.38896858  0.79325202  0.85511175  1
  H  H104  1  0.38556043  0.91797028  0.96303026  1
  H  H105  1  0.40102725  0.88192148  0.98234374  1
  H  H106  1  0.39667080  0.83502167  0.06414384  1
  H  H107  1  0.40837329  0.86815795  0.04060058  1
  H  H108  1  0.39790407  0.83461128  0.01566249  1
  H  H109  1  0.35392844  0.92792857  0.94773736  1
  H  H110  1  0.34961777  0.96404327  0.97814649  1
  H  H111  1  0.32788976  0.94120148  0.96503830  1
  H  H112  1  0.32487741  0.87778032  0.11749287  1
  H  H113  1  0.30544806  0.88875196  0.08369896  1
  H  H114  1  0.31749718  0.92159687  0.10693402  1
  H  H115  1  0.30814050  0.95011098  0.05833857  1
  H  H116  1  0.31245575  0.95643474  0.01066090  1
  H  H117  1  0.28333399  0.98264415  0.03257192  1
  H  H118  1  0.24648882  0.00818006  0.03972159  1
  H  H119  1  0.22426051  0.90796175  0.01723567  1
  H  H120  1  0.26213642  0.88164461  0.01341920  1
  H  H121  1  0.19728575  0.95837561  0.02889760  1
  H  H122  1  0.21701597  0.02851201  0.03651833  1
  H  H123  1  0.34639769  0.84057944  0.10976226  1
  H  H124  1  0.37272756  0.82636986  0.09401296  1
  H  H125  1  0.36068387  0.80492770  0.14563078  1
  H  H126  1  0.37736301  0.76918426  0.19462629  1
  H  H127  1  0.40995643  0.85586579  0.23111335  1
  H  H128  1  0.39341235  0.89156891  0.18103497  1
  H  H129  1  0.40128954  0.75932756  0.24155816  1
  H  H130  1  0.41728407  0.82211327  0.28126638  1
  H  H131  1  0.70584837  0.56048503  0.78610281  1
  H  H132  1  0.70757084  0.48659285  0.81714966  1
  H  H133  1  0.73830541  0.47533214  0.85890887  1
  H  H134  1  0.75901171  0.49453769  0.91012433  1
  H  H135  1  0.73055186  0.59998047  0.89536937  1
  H  H136  1  0.70898052  0.58041087  0.84485008  1
  H  H137  1  0.78298797  0.52567780  0.94418643  1
  H  H138  1  0.75908117  0.51745117  0.96788189  1
  H  H139  1  0.73224088  0.54960503  0.04946650  1
  H  H140  1  0.74694308  0.51483490  0.02564187  1
  H  H141  1  0.73258655  0.54868680  0.00097931  1
  H  H142  1  0.80025570  0.56511376  0.93125390  1
  H  H143  1  0.82200966  0.55112826  0.95972559  1
  H  H144  1  0.81622135  0.59566962  0.94917045  1
  H  H145  1  0.78210938  0.62612364  0.10466145  1
  H  H146  1  0.79541114  0.64971962  0.07114536  1
  H  H147  1  0.80915870  0.61335703  0.09251068  1
  H  H148  1  0.82938524  0.61013573  0.04427150  1
  H  H149  1  0.83179622  0.60308425  0.99618444  1
  H  H150  1  0.85800888  0.63200849  0.01933958  1
  H  H151  1  0.88480014  0.67366314  0.02109675  1
  H  H152  1  0.83503497  0.75803252  0.00435009  1
  H  H153  1  0.80780002  0.71585492  0.00387261  1
  H  H154  1  0.86947854  0.77219831  0.01657619  1
  H  H155  1  0.90824297  0.71794122  0.00183722  1
  H  H156  1  0.75289033  0.61709716  0.09685755  1
  H  H157  1  0.73608622  0.58680826  0.08058587  1
  H  H158  1  0.72560919  0.61231890  0.13218420  1
  H  H159  1  0.69863623  0.60397551  0.18025570  1
  H  H160  1  0.73766003  0.51249552  0.21704371  1
  H  H161  1  0.76423850  0.52017998  0.16738967  1
  H  H162  1  0.68387246  0.57075288  0.22545350  1
  H  H163  1  0.71489774  0.51771223  0.26649313  1
  H  H164  1  0.01888192  0.07235238  0.00425814  1
  H  H165  1  0.09321759  0.24061507  0.07878542  1
  H  H166  1  0.04675173  0.06627845  0.06882218  1
  H  H167  1  0.02244483  0.09452557  0.06991747  1
  H  H168  1  0.05908127  0.09582710  0.01269610  1
  H  H169  1  0.03419664  0.12181730  0.01082836  1
  H  H170  1  0.04164117  0.15087196  0.07034625  1
  H  H171  1  0.06666959  0.12531242  0.07226985  1
  H  H172  1  0.09785333  0.20395367  0.00882233  1
  H  H173  1  0.07352886  0.23174532  0.01081037  1
  H  H174  1  0.06268060  0.20514779  0.06952597  1
  H  H175  1  0.08714395  0.17784187  0.06960863  1
  H  H176  1  0.07726869  0.14985168  0.01061427  1
  H  H177  1  0.05264478  0.17662804  0.01093849  1
  H  H178  1  0.95551665  0.02769187  0.07528564  1
  H  H179  1  0.82291687  0.95497767  0.00229199  1
  H  H180  1  0.94525947  0.00748876  -0.00024926  1
  H  H181  1  0.93488097  0.04537999  0.02469726  1
  H  H182  1  0.92471452  0.97092030  0.03842808  1
  H  H183  1  0.91905482  0.00423153  0.07167177  1
  H  H184  1  0.89434119  0.03816760  0.02886509  1
  H  H185  1  0.90034502  0.00627750  -0.00569650  1
  H  H186  1  0.84867441  0.95060834  0.04438925  1
  H  H187  1  0.83711561  0.98883178  0.06764792  1
  H  H188  1  0.85408140  0.02591382  0.02443662  1
  H  H189  1  0.86053234  0.99117050  -0.00695535  1
  H  H190  1  0.88639364  0.96144638  0.03645867  1
  H  H191  1  0.87958186  0.99416002  0.06982854  1
  H  H192  1  0.05134988  0.96665849  0.05863156  1
  H  H193  1  0.18225311  0.05200308  0.03046474  1
  H  H194  1  0.06145173  0.02073937  1.00515351  1
  H  H195  1  0.06957913  0.97564620  -0.00053609  1
  H  H196  1  0.08260723  0.02175221  0.06212893  1
  H  H197  1  0.08804681  0.97606180  0.06107784  1
  H  H198  1  0.11117409  0.97868610  0.00478976  1
  H  H199  1  0.10523936  0.02427288  0.00331211  1
  H  H200  1  0.15962602  0.03230666  0.07784024  1
  H  H201  1  0.17016950  -0.01134529  0.06835715  1
  H  H202  1  0.15148277  0.98973089  0.00936430  1
  H  H203  1  0.14498018  0.03522898  0.01260250  1
  H  H204  1  0.12086032  0.02873471  0.06665742  1
  H  H205  1  0.12774255  0.98334916  0.06629350  1
  H  H206  1  0.98692207  0.93349271  -0.00010000  1
  H  H207  1  0.90291213  0.77507714  0.05610934  1
  H  H208  1  0.95713359  0.93694106  0.06398926  1
  H  H209  1  0.98176015  0.90972470  0.06562389  1
  H  H210  1  0.94839277  0.90788745  0.00542482  1
  H  H211  1  0.97368696  0.88289853  0.00480953  1
  H  H212  1  0.96335715  0.85267275  0.06244752  1
  H  H213  1  0.93780791  0.87684520  0.06243549  1
  H  H214  1  0.91505960  0.79666273  0.99051341  1
  H  H215  1  0.93771163  0.76681804  1.00005786  1
  H  H216  1  0.94400730  0.79746969  0.05737286  1
  H  H217  1  0.91912984  0.82339464  0.05481170  1
  H  H218  1  0.93179720  0.85265482  -0.00109414  1
  H  H219  1  0.95693402  0.82742517  0.00058081  1
  H  H220  1  0.34100426  0.46322103  0.69775522  1
  H  H221  1  0.30876210  0.46077306  0.73786585  1
  H  H222  1  0.34576491  0.48361434  0.83162881  1
  H  H223  1  0.37834383  0.48192173  0.79181775  1
  H  H224  1  0.53308917  0.27738005  0.75216998  1
  H  H225  1  0.54840093  0.22989357  0.79148002  1
  H  H226  1  0.61218171  0.24831890  0.75405096  1
  H  H227  1  0.59665772  0.29673456  0.71626670  1
  H  H228  1  0.53329291  0.28143944  0.33871681  1
  H  H229  1  0.54412613  0.22696306  0.30417991  1
  H  H230  1  0.61001512  0.25032673  0.30369615  1
  H  H231  1  0.59898344  0.30509794  0.33719613  1
  H  H232  1  0.43591247  0.74523650  0.38495223  1
  H  H233  1  0.42416215  0.79634442  0.34731444  1
  H  H234  1  0.43509328  0.73289157  0.24938037  1
  H  H235  1  0.44769666  0.68249940  0.28713214  1
  H  H236  1  0.46474211  0.73592978  0.71606682  1
  H  H237  1  0.45221357  0.78702851  0.75444054  1
  H  H238  1  0.40105789  0.73205234  0.79887217  1
  H  H239  1  0.41445209  0.68043204  0.76167800  1
  H  H240  1  0.66642797  0.53496933  0.37386443  1
  H  H241  1  0.69878118  0.52788590  0.33327367  1
  H  H242  1  0.65816924  0.52791150  0.23906414  1
  H  H243  1  0.62615898  0.53195756  0.28015624  1
  H  H244  1  0.34258698  0.47647068  0.39043455  1
  H  H245  1  0.30953381  0.47918770  0.35429139  1
  H  H246  1  0.34818200  0.47545669  0.25438834  1
  H  H247  1  0.38102487  0.47499751  0.29094861  1
  H  H248  1  0.62784004  0.51488569  0.78238037  1
  H  H249  1  0.66133218  0.51303550  0.81706231  1
  H  H250  1  0.69553538  0.53837721  0.71844943  1
  H  H251  1  0.66241794  0.53609812  0.68336135  1
  C  C252  1  0.97998658  0.00739270  0.04167135  1
  C  C253  1  0.99047465  0.97401358  0.03317086  1
  C  C254  1  0.01305030  0.96832174  0.03576730  1
  C  C255  1  0.02598894  0.99586462  0.03754392  1
  C  C256  1  0.01526776  0.02998716  0.03473847  1
  C  C257  1  0.99276370  0.03525398  0.04052071  1
  C  C258  1  0.58932409  0.51478973  0.67464382  1
  C  C259  1  0.58058656  0.53385884  0.64434523  1
  C  C260  1  0.56837573  0.51829516  0.61916828  1
  C  C261  1  0.56449370  0.48416648  0.62623625  1
  C  C262  1  0.56887127  0.46775270  0.66047943  1
  C  C263  1  0.58103935  0.48351307  0.68533493  1
  C  C264  1  0.41227319  0.48038667  0.67480887  1
  C  C265  1  0.41935559  0.46317309  0.64154828  1
  C  C266  1  0.43187377  0.47905408  0.61630224  1
  C  C267  1  0.43720105  0.51200608  0.62554332  1
  C  C268  1  0.43275851  0.52766091  0.66075871  1
  C  C269  1  0.42071576  0.51129060  0.68596675  1
  C  C270  1  0.45470524  0.62456008  0.40083393  1
  C  C271  1  0.46569467  0.62507966  0.43454027  1
  C  C272  1  0.46565849  0.59797071  0.45897455  1
  C  C273  1  0.45495548  0.56990207  0.44840767  1
  C  C274  1  0.44605426  0.56691128  0.41313931  1
  C  C275  1  0.44592952  0.59427335  0.38908893  1
  C  C276  1  0.55334523  0.38847987  0.39484332  1
  C  C277  1  0.54080083  0.38881322  0.42796820  1
  C  C278  1  0.54133425  0.41471057  0.45396393  1
  C  C279  1  0.55380982  0.44138292  0.44526668  1
  C  C280  1  0.56384008  0.44429095  0.41025672  1
  C  C281  1  0.56379253  0.41773645  0.38477511  1
  C  C282  1  0.41749842  0.48617163  0.39833027  1
  C  C283  1  0.42642877  0.46731665  0.42858231  1
  C  C284  1  0.43847606  0.48327804  0.45365274  1
  C  C285  1  0.44215385  0.51740561  0.44616830  1
  C  C286  1  0.43773343  0.53346930  0.41174883  1
  C  C287  1  0.42558949  0.51745884  0.38709905  1
  C  C288  1  0.59414760  0.52377226  0.39759390  1
  C  C289  1  0.58696504  0.54074149  0.43093184  1
  C  C290  1  0.57447972  0.52468036  0.45609900  1
  C  C291  1  0.56914151  0.49179219  0.44664872  1
  C  C292  1  0.57348258  0.47663448  0.41120387  1
  C  C293  1  0.58564083  0.49302725  0.38616372  1
  C  C294  1  0.55069355  0.37723496  0.67147616  1
  C  C295  1  0.54009582  0.37699357  0.63739797  1
  C  C296  1  0.54047305  0.40411544  0.61298951  1
  C  C297  1  0.55131392  0.43199521  0.62366742  1
  C  C298  1  0.56028077  0.43447585  0.65892513  1
  C  C299  1  0.56000487  0.40710431  0.68299166  1
  C  C300  1  0.45278474  0.61628491  0.67588170  1
  C  C301  1  0.46539065  0.61537987  0.64284010  1
  C  C302  1  0.46490880  0.58908627  0.61725420  1
  C  C303  1  0.45243411  0.56253697  0.62631557  1
  C  C304  1  0.44231294  0.56013515  0.66129871  1
  C  C305  1  0.44224253  0.58715631  0.68629595  1
  C  C306  1  0.54612381  0.47055212  0.56813481  1
  C  C307  1  0.52469344  0.48373870  0.56863602  1
  C  C308  1  0.45854981  0.52762203  0.56879627  1
  C  C309  1  0.47995720  0.51429739  0.56910873  1
  C  C310  1  0.46029110  0.53178147  0.50408193  1
  C  C311  1  0.48170881  0.51853929  0.50361502  1
  C  C312  1  0.54786538  0.47539124  0.50337459  1
  C  C313  1  0.52639943  0.48833792  0.50314109  1
  C  C314  1  0.55845498  0.46672576  0.53576686  1
  C  C315  1  0.51449278  0.49380749  0.53604022  1
  C  C316  1  0.44795758  0.53604787  0.53637970  1
  C  C317  1  0.49188882  0.50862014  0.53625557  1
  C  C318  1  0.30916235  0.46597203  0.27843705  1
  C  C319  1  0.31407593  0.44291678  0.25024085  1
  C  C320  1  0.30023371  0.43398748  0.22105492  1
  C  C321  1  0.30720728  0.40525689  0.19796604  1
  C  C322  1  0.29506617  0.39562956  0.16901054  1
  C  C323  1  0.27551700  0.41503724  0.16171046  1
  C  C324  1  0.26804904  0.44348576  0.18417828  1
  C  C325  1  0.28024769  0.45299331  0.21331935  1
  C  C326  1  0.27133159  0.37930173  0.10816690  1
  C  C327  1  0.25631229  0.37879360  0.07649841  1
  C  C328  1  0.23841452  0.35944229  0.07915758  1
  C  C329  1  0.22417006  0.36005651  0.04959505  1
  C  C330  1  0.22715502  0.38081109  0.01839499  1
  C  C331  1  0.24464527  0.40114591  0.01686110  1
  C  C332  1  0.25981317  0.39916242  0.04515173  1
  C  C333  1  0.27972277  0.41777116  0.04381520  1
  C  C334  1  0.23548473  0.33648367  0.11152879  1
  C  C335  1  0.21109620  0.38021206  0.98843358  1
  C  C336  1  0.20556234  0.33840789  0.05049570  1
  C  C337  1  0.16712483  0.34437398  0.05680075  1
  C  C338  1  0.16743664  0.30854682  0.05101798  1
  C  C339  1  0.14822591  0.29372917  0.04934048  1
  C  C340  1  0.12812681  0.31406905  0.05319519  1
  C  C341  1  0.12832812  0.35016464  0.06064442  1
  C  C342  1  0.14753098  0.36503597  0.06243838  1
  C  C343  1  0.10866472  0.29734383  0.05206085  1
  C  C344  1  0.10786736  0.26469761  0.03673439  1
  C  C345  1  0.24723442  0.42447056  0.98442445  1
  C  C346  1  0.26643281  0.42181857  0.92620368  1
  C  C347  1  0.26144357  0.45764335  0.92150725  1
  C  C348  1  0.27168658  0.47454514  0.89375653  1
  C  C349  1  0.28686533  0.45623614  0.86942563  1
  C  C350  1  0.29054835  0.41967264  0.87347182  1
  C  C351  1  0.28017983  0.40263724  0.90099719  1
  C  C352  1  0.29891343  0.47368822  0.84199628  1
  C  C353  1  0.30770137  0.45713367  0.81123606  1
  C  C354  1  0.59250114  0.21162883  0.80263870  1
  C  C355  1  0.58341298  0.18916275  0.82547369  1
  C  C356  1  0.59506023  0.17308648  0.85602464  1
  C  C357  1  0.58848256  0.14407943  0.87516787  1
  C  C358  1  0.59966145  0.12997457  0.90504914  1
  C  C359  1  0.61807062  0.14432372  0.91653007  1
  C  C360  1  0.62532455  0.17222459  0.89747797  1
  C  C361  1  0.61361746  0.18712585  0.86860876  1
  C  C362  1  0.62215270  0.10938340  0.97222998  1
  C  C363  1  0.63726945  0.10803504  0.00390749  1
  C  C364  1  0.65732328  0.08750695  0.00011983  1
  C  C365  1  0.67215557  0.08743446  0.02872357  1
  C  C366  1  0.66735977  0.10841132  0.06042721  1
  C  C367  1  0.64770734  0.12999623  0.06293873  1
  C  C368  1  0.63225746  0.12943768  0.03526481  1
  C  C369  1  0.61083269  0.15103971  0.03729223  1
  C  C370  1  0.66204067  0.06445430  0.96700600  1
  C  C371  1  0.68394938  0.10684024  0.08972742  1
  C  C372  1  0.69349443  0.06557943  0.02623563  1
  C  C373  1  0.73114118  0.07249228  0.02086825  1
  C  C374  1  0.73579715  0.03661426  0.02458978  1
  C  C375  1  0.75698128  0.02200937  0.02685833  1
  C  C376  1  0.77439562  0.04259748  0.02470202  1
  C  C377  1  0.76910560  0.07895041  0.02007688  1
  C  C378  1  0.74791048  0.09364076  0.01803823  1
  C  C379  1  0.79659915  0.02746154  0.02591541  1
  C  C380  1  0.80246186  0.99223912  0.02666793  1
  C  C381  1  0.64359131  0.15339019  0.09599109  1
  C  C382  1  0.62748021  0.15353997  0.15594343  1
  C  C383  1  0.63354226  0.18685591  0.16189806  1
  C  C384  1  0.62465700  0.20650907  0.19138901  1
  C  C385  1  0.60962552  0.19372313  0.21599642  1
  C  C386  1  0.60508250  0.15887507  0.21094959  1
  C  C387  1  0.61412978  0.13894258  0.18148941  1
  C  C388  1  0.60024364  0.21669184  0.24501765  1
  C  C389  1  0.58414857  0.21069158  0.26926344  1
  C  C390  1  0.41489783  0.79316004  0.80100287  1
  C  C391  1  0.42409432  0.81538125  0.82356029  1
  C  C392  1  0.41250101  0.83068148  0.85560636  1
  C  C393  1  0.41930204  0.85852743  0.87627915  1
  C  C394  1  0.40795914  0.87163761  0.90748936  1
  C  C395  1  0.38924925  0.85738471  0.91888464  1
  C  C396  1  0.38201986  0.83020821  0.89876271  1
  C  C397  1  0.39382321  0.81635150  0.86840558  1
  C  C398  1  0.38457260  0.89220537  0.97534744  1
  C  C399  1  0.36902806  0.89404288  0.00766126  1
  C  C400  1  0.34907576  0.91469935  0.00484362  1
  C  C401  1  0.33377114  0.91481334  0.03389598  1
  C  C402  1  0.33798896  0.89396045  0.06521083  1
  C  C403  1  0.35771707  0.87269836  0.06702505  1
  C  C404  1  0.37359025  0.87306100  0.03880124  1
  C  C405  1  0.39505043  0.85165672  0.04000744  1
  C  C406  1  0.34489017  0.93788092  0.97237054  1
  C  C407  1  0.32075629  0.89535429  0.09475816  1
  C  C408  1  0.31246469  0.93657231  0.03205848  1
  C  C409  1  0.27515483  0.93003329  0.02461350  1
  C  C410  1  0.27051746  0.96575686  0.03056494  1
  C  C411  1  0.24931650  0.98046115  0.03352894  1
  C  C412  1  0.23191798  0.96025166  0.02930267  1
  C  C413  1  0.23720231  0.92422620  0.02151467  1
  C  C414  1  0.25841053  0.90934384  0.01930173  1
  C  C415  1  0.20985332  0.97566970  0.03231066  1
  C  C416  1  0.20444347  0.01082298  0.03761234  1
  C  C417  1  0.36153051  0.84974653  0.09982979  1
  C  C418  1  0.37752018  0.84966989  0.15843049  1
  C  C419  1  0.37216621  0.81577627  0.16325592  1
  C  C420  1  0.38119848  0.79586328  0.19146016  1
  C  C421  1  0.39531310  0.80921415  0.21637687  1
  C  C422  1  0.39933709  0.84442352  0.21229497  1
  C  C423  1  0.39025737  0.86452128  0.18397485  1
  C  C424  1  0.40496854  0.78620487  0.24403041  1
  C  C425  1  0.41682656  0.79509161  0.27286684  1
  C  C426  1  0.69930598  0.53597893  0.79258779  1
  C  C427  1  0.70859203  0.51458268  0.81863013  1
  C  C428  1  0.72182153  0.52614824  0.84762323  1
  C  C429  1  0.73610220  0.50262608  0.86726634  1
  C  C430  1  0.74785993  0.51350283  0.89633845  1
  C  C431  1  0.74557326  0.54857952  0.90698120  1
  C  C432  1  0.73203178  0.57259969  0.88741230  1
  C  C433  1  0.72016852  0.56153846  0.85860277  1
  C  C434  1  0.76887991  0.53824265  0.95961599  1
  C  C435  1  0.77546393  0.55907168  0.99191417  1
  C  C436  1  0.79434642  0.57614407  0.98928041  1
  C  C437  1  0.80025278  0.59570529  0.01959816  1
  C  C438  1  0.78673996  0.60041928  0.05135165  1
  C  C439  1  0.76757635  0.58409343  0.05317627  1
  C  C440  1  0.76212993  0.56257136  0.02401625  1
  C  C441  1  0.74254261  0.54320218  0.02522061  1
  C  C442  1  0.80878177  0.57192857  0.95574552  1
  C  C443  1  0.79351354  0.62345152  0.08137316  1
  C  C444  1  0.82063458  0.61326093  0.01836758  1
  C  C445  1  0.83103586  0.67149175  0.01223644  1
  C  C446  1  0.85276215  0.65961780  0.01635644  1
  C  C447  1  0.86802727  0.68328533  0.01686807  1
  C  C448  1  0.86207116  0.71937891  0.01275078  1
  C  C449  1  0.83998799  0.73041635  0.00777538  1
  C  C450  1  0.82473310  0.70692747  0.00748716  1
  C  C451  1  0.87697857  0.74525336  0.01570474  1
  C  C452  1  0.89905105  0.73951095  0.01695041  1
  C  C453  1  0.75288283  0.59027940  0.08646065  1
  C  C454  1  0.74565458  0.56475125  0.14451447  1
  C  C455  1  0.72776055  0.58935643  0.14939965  1
  C  C456  1  0.71278247  0.58506447  0.17715033  1
  C  C457  1  0.71542207  0.55698078  0.20181697  1
  C  C458  1  0.73463266  0.53406108  0.19812606  1
  C  C459  1  0.74960004  0.53810368  0.17002796  1
  C  C460  1  0.69846467  0.55302008  0.22889718  1
  C  C461  1  0.69963983  0.53151027  0.25837691  1
  C  C462  1  0.03511619  0.08158934  0.05143990  1
  C  C463  1  0.04593546  0.10909171  0.02994724  1
  C  C464  1  0.05469150  0.13728880  0.05310904  1
  C  C465  1  0.08564356  0.21710245  0.02796042  1
  C  C466  1  0.07503463  0.19093484  0.05140654  1
  C  C467  1  0.06490820  0.16369431  0.02903428  1
  C  C468  1  0.94002263  0.01732350  0.02725711  1
  C  C469  1  0.92076348  -0.00073466  0.04186716  1
  C  C470  1  0.89900064  0.01011224  0.02431369  1
  C  C471  1  0.84195390  0.97780695  0.04047113  1
  C  C472  1  0.85924197  0.99778103  0.02250106  1
  C  C473  1  0.88121751  0.98950078  0.03994805  1
  C  C474  1  0.06583977  0.99656298  0.02012861  1
  C  C475  1  0.08584716  0.99916523  0.04340989  1
  C  C476  1  0.10706502  1.00201395  0.02218442  1
  C  C477  1  0.16522338  0.01382246  0.05563059  1
  C  C478  1  0.14691081  0.01126520  0.02894662  1
  C  C479  1  0.12554221  0.00623890  0.04830105  1
  C  C480  1  0.96982258  0.92244071  0.04679614  1
  C  C481  1  0.96070276  0.89481652  0.02330624  1
  C  C482  1  0.95121025  0.86579398  0.04427912  1
  C  C483  1  0.92435132  0.78380029  0.01298088  1
  C  C484  1  0.93268149  0.81081708  0.03799964  1
  C  C485  1  0.94333248  0.83916890  0.01790315  1
  C  C486  1  0.36235660  0.46895440  0.74255574  1
  C  C487  1  0.34206812  0.46544234  0.72744721  1
  C  C488  1  0.32424207  0.46390606  0.74981527  1
  C  C489  1  0.39606534  0.46900075  0.69787642  1
  C  C490  1  0.34483273  0.47714415  0.80264587  1
  C  C491  1  0.36302265  0.47675438  0.78046923  1
  C  C492  1  0.38068726  0.46756142  0.71906765  1
  C  C493  1  0.32538458  0.46741872  0.78837758  1
  C  C494  1  0.56372150  0.29205403  0.73321952  1
  C  C495  1  0.55046308  0.27142051  0.75370941  1
  C  C496  1  0.55917959  0.24470734  0.77562533  1
  C  C497  1  0.55235770  0.34744803  0.69399375  1
  C  C498  1  0.59487361  0.25537657  0.75455313  1
  C  C499  1  0.58623902  0.28217244  0.73325120  1
  C  C500  1  0.55576149  0.32125158  0.71264811  1
  C  C501  1  0.58180079  0.23668012  0.77787775  1
  C  C502  1  0.56508208  0.29855246  0.33779637  1
  C  C503  1  0.54996788  0.27488815  0.32972576  1
  C  C504  1  0.55606043  0.24455784  0.31042803  1
  C  C505  1  0.55558760  0.35822538  0.37262162  1
  C  C506  1  0.59302480  0.25833633  0.30899868  1
  C  C507  1  0.58701955  0.28830836  0.32866680  1
  C  C508  1  0.55926943  0.33057493  0.35588120  1
  C  C509  1  0.57746358  0.23695424  0.29673710  1
  C  C510  1  0.44215642  0.71000234  0.33878415  1
  C  C511  1  0.43575825  0.74298184  0.35515453  1
  C  C512  1  0.42908846  0.77133539  0.33413029  1
  C  C513  1  0.45206658  0.65436700  0.37863182  1
  C  C514  1  0.43466287  0.73543807  0.27914000  1
  C  C515  1  0.44207476  0.70743238  0.30001281  1
  C  C516  1  0.44812845  0.68046701  0.36006821  1
  C  C517  1  0.42713481  0.76796550  0.29562290  1
  C  C518  1  0.44077162  0.70417321  0.73650271  1
  C  C519  1  0.45104931  0.73507215  0.73493733  1
  C  C520  1  0.44384030  0.76379666  0.75640370  1
  C  C521  1  0.45083477  0.64688754  0.69764730  1
  C  C522  1  0.41496150  0.73293211  0.78054407  1
  C  C523  1  0.42254230  0.70402263  0.76025704  1
  C  C524  1  0.44730315  0.67398473  0.71542341  1
  C  C525  1  0.42534233  0.76372152  0.77953073  1
  C  C526  1  0.64395929  0.53538213  0.32982846  1
  C  C527  1  0.66489712  0.53345357  0.34420429  1
  C  C528  1  0.68286643  0.52964745  0.32150363  1
  C  C529  1  0.61040929  0.53549719  0.37484944  1
  C  C530  1  0.66007012  0.53043454  0.26854734  1
  C  C531  1  0.64212515  0.53245971  0.29136897  1
  C  C532  1  0.62575294  0.53732777  0.35365438  1
  C  C533  1  0.68104813  0.52981609  0.28283466  1
  C  C534  1  0.36417914  0.47365650  0.34310063  1
  C  C535  1  0.34357685  0.47597211  0.36055692  1
  C  C536  1  0.32518698  0.47717628  0.34030384  1
  C  C537  1  0.39992687  0.47544772  0.37944881  1
  C  C538  1  0.34705234  0.47426800  0.28417550  1
  C  C539  1  0.36529103  0.47457631  0.30432359  1
  C  C540  1  0.38336887  0.47299515  0.36273279  1
  C  C541  1  0.32653784  0.47372099  0.30153686  1
  C  C542  1  0.64240007  0.52780904  0.73085362  1
  C  C543  1  0.64284124  0.52006733  0.76875907  1
  C  C544  1  0.66154421  0.51948977  0.78804909  1
  C  C545  1  0.60669570  0.52520444  0.69442512  1
  C  C546  1  0.68054392  0.53435892  0.73276748  1
  C  C547  1  0.66212784  0.53294248  0.71304219  1
  C  C548  1  0.62314956  0.52796807  0.71136763  1
  C  C549  1  0.68068144  0.52911147  0.77117917  1
  N  N550  1  0.55486679  0.46154172  0.60368213  1
  N  N551  1  0.44842196  0.53437310  0.60459660  1
  N  N552  1  0.45155612  0.54042231  0.46851814  1
  N  N553  1  0.55797261  0.46916642  0.46742304  1
  N  N554  1  0.02620150  0.05840683  0.02511068  1
  N  N555  1  0.09598247  0.24067637  0.05121204  1
  N  N556  1  0.95829134  0.01259967  0.05221707  1
  N  N557  1  0.82281137  0.97692669  0.01785932  1
  N  N558  1  0.04774977  0.98872385  0.04381129  1
  N  N559  1  0.18396199  0.02657258  0.03777679  1
  N  N560  1  0.97940634  0.94650250  0.02194468  1
  N  N561  1  0.91088337  0.76226686  0.03447860  1
  O  O562  1  0.26293090  0.40714662  0.13351884  1
  O  O563  1  0.25798210  0.40413980  0.95423285  1
  O  O564  1  0.18542365  0.36052570  0.05721324  1
  O  O565  1  0.63059235  0.13182868  0.94460896  1
  O  O566  1  0.63462088  0.13423918  0.12592826  1
  O  O567  1  0.71058717  0.08803731  0.01996910  1
  O  O568  1  0.37655391  0.86925339  0.94811938  1
  O  O569  1  0.37032954  0.86907160  0.12936876  1
  O  O570  1  0.29567932  0.91428547  0.02391603  1
  O  O571  1  0.75627201  0.56172708  0.93516437  1
  O  O572  1  0.75976023  0.56634569  0.11573236  1
  O  O573  1  0.81497370  0.65034798  0.01241624  1
