# generated using pymatgen
data_Ni2H161C244(NO3)5
_symmetry_space_group_name_H-M   'P 1'
_cell_length_a   56.16382548
_cell_length_b   39.30070526
_cell_length_c   62.50321597
_cell_angle_alpha   95.93980043
_cell_angle_beta   88.48084834
_cell_angle_gamma   65.95798983
_symmetry_Int_Tables_number   1
_chemical_formula_structural   Ni2H161C244(NO3)5
_chemical_formula_sum   'Ni2 H161 C244 N5 O15'
_cell_volume   124958.28716691
_cell_formula_units_Z   1
loop_
 _symmetry_equiv_pos_site_id
 _symmetry_equiv_pos_as_xyz
  1  'x, y, z'
loop_
 _atom_site_type_symbol
 _atom_site_label
 _atom_site_symmetry_multiplicity
 _atom_site_fract_x
 _atom_site_fract_y
 _atom_site_fract_z
 _atom_site_occupancy
  Ni  Ni0  1  0.07133359  0.52835823  0.76810244  1
  Ni  Ni1  1  0.07105766  0.51775935  0.27896236  1
  H  H2  1  0.02284538  0.97735563  0.62319102  1
  H  H3  1  0.03597055  0.03226660  0.68168959  1
  H  H4  1  0.01272762  0.00932776  0.59086078  1
  H  H5  1  0.01245561  0.11930137  0.59145545  1
  H  H6  1  0.02329681  0.14909560  0.62377533  1
  H  H7  1  0.03644990  0.09698419  0.68188352  1
  H  H8  1  0.02307333  0.94863745  0.42630698  1
  H  H9  1  0.03529102  0.98724203  0.36702613  1
  H  H10  1  0.01416905  0.98931981  0.46052876  1
  H  H11  1  0.01449125  0.09904378  0.46203863  1
  H  H12  1  0.02301198  0.12091421  0.42857193  1
  H  H13  1  0.03542128  0.05223423  0.36785441  1
  H  H14  1  0.08835200  0.58853886  0.78587621  1
  H  H15  1  0.09735894  0.63825762  0.76939171  1
  H  H16  1  0.06057823  0.61582839  0.71322345  1
  H  H17  1  0.05715315  0.56244068  0.73032890  1
  H  H18  1  0.12477265  0.52805662  0.74953862  1
  H  H19  1  0.16700790  0.51808618  0.76612220  1
  H  H20  1  0.14034265  0.47708519  0.81887383  1
  H  H21  1  0.09766424  0.49371283  0.80191526  1
  H  H22  1  0.09131135  0.43714333  0.26016601  1
  H  H23  1  0.09744424  0.37719861  0.27486678  1
  H  H24  1  0.05921901  0.44361838  0.33514911  1
  H  H25  1  0.05674968  0.50079327  0.31878642  1
  H  H26  1  0.12348331  0.46563302  0.29308358  1
  H  H27  1  0.16780339  0.43011448  0.27326110  1
  H  H28  1  0.14016907  0.50058367  0.22274422  1
  H  H29  1  0.09619513  0.53088092  0.24363446  1
  H  H30  1  0.84424269  0.69453358  0.17547993  1
  H  H31  1  0.87312701  0.61191909  0.15460057  1
  H  H32  1  0.86238858  0.58759440  0.12465898  1
  H  H33  1  0.83537232  0.58958370  0.09429729  1
  H  H34  1  0.78661484  0.70616653  0.11584630  1
  H  H35  1  0.81353231  0.70430066  0.14678261  1
  H  H36  1  0.80485512  0.59450610  0.07500770  1
  H  H37  1  0.82582519  0.61283050  0.06388798  1
  H  H38  1  0.81952099  0.67329410  0.02347050  1
  H  H39  1  0.83574684  0.62784277  0.03089407  1
  H  H40  1  0.82017275  0.66678140  0.05099567  1
  H  H41  1  0.77013934  0.60031649  0.08109173  1
  H  H42  1  0.76483075  0.57067814  0.06023290  1
  H  H43  1  0.73880753  0.61279554  0.07189815  1
  H  H44  1  0.73732538  0.68392046  0.99025934  1
  H  H45  1  0.71346395  0.68699766  0.01056209  1
  H  H46  1  0.72935021  0.64544102  0.99255864  1
  H  H47  1  0.71906621  0.61980538  0.01733719  1
  H  H48  1  0.72625853  0.60338198  0.04278507  1
  H  H49  1  0.69314324  0.60027088  0.03445547  1
  H  H50  1  0.64959116  0.60191596  0.03222334  1
  H  H51  1  0.61549631  0.72137437  0.05339002  1
  H  H52  1  0.66027074  0.71962700  0.05533269  1
  H  H53  1  0.58629561  0.68962632  0.04532741  1
  H  H54  1  0.61191729  0.60305167  0.02923335  1
  H  H55  1  0.76093802  0.70971385  0.99999942  1
  H  H56  1  0.79354617  0.69745662  0.00662501  1
  H  H57  1  0.78392676  0.73454026  0.97921561  1
  H  H58  1  0.80744506  0.75263206  0.95217540  1
  H  H59  1  0.84180977  0.63768398  0.92100717  1
  H  H60  1  0.81689527  0.62075080  0.94759732  1
  H  H61  1  0.84226713  0.73396115  0.92075808  1
  H  H62  1  0.85375226  0.65537818  0.89685340  1
  H  H63  1  0.33864253  0.38576406  0.87724660  1
  H  H64  1  0.34584388  0.30347937  0.87763739  1
  H  H65  1  0.37848559  0.26820066  0.90270644  1
  H  H66  1  0.40446068  0.26748049  0.93373958  1
  H  H67  1  0.38174561  0.38673109  0.93552026  1
  H  H68  1  0.35506830  0.38819966  0.90482953  1
  H  H69  1  0.43595956  0.27527748  0.95580131  1
  H  H70  1  0.40517049  0.28673944  0.96956088  1
  H  H71  1  0.37561614  0.33166948  0.02112283  1
  H  H72  1  0.39119679  0.28872577  0.00428401  1
  H  H73  1  0.37602859  0.33114032  0.99284890  1
  H  H74  1  0.45936344  0.30212701  0.94968900  1
  H  H75  1  0.48487400  0.27326518  0.96433346  1
  H  H76  1  0.48108402  0.31942619  0.96117041  1
  H  H77  1  0.44084136  0.37069058  0.05562919  1
  H  H78  1  0.45821793  0.38471745  0.03692461  1
  H  H79  1  0.47311634  0.34044412  0.04629140  1
  H  H80  1  0.49650644  0.32860633  0.01620367  1
  H  H81  1  0.49850747  0.32091014  0.98753245  1
  H  H82  1  0.53028153  0.32839941  0.00048444  1
  H  H83  1  0.56657536  0.34671996  0.00559478  1
  H  H84  1  0.51378798  0.46329886  0.00650610  1
  H  H85  1  0.47657161  0.44482950  0.00237022  1
  H  H86  1  0.55781801  0.44843426  0.01700772  1
  H  H87  1  0.59886012  0.36636712  0.00920744  1
  H  H88  1  0.40635707  0.37737237  0.05294499  1
  H  H89  1  0.38377949  0.36029387  0.04284430  1
  H  H90  1  0.37700210  0.39009067  0.07543855  1
  H  H91  1  0.34328666  0.39986503  0.10404647  1
  H  H92  1  0.38063506  0.28225645  0.11262784  1
  H  H93  1  0.41366161  0.27224443  0.08281076  1
  H  H94  1  0.32464315  0.37961728  0.13043908  1
  H  H95  1  0.34840073  0.29618404  0.13891274  1
  H  H96  1  0.97601502  0.57365195  0.85398232  1
  H  H97  1  0.93638761  0.60672340  0.87904602  1
  H  H98  1  0.90927473  0.69765972  0.84048809  1
  H  H99  1  0.94897709  0.66456662  0.81533843  1
  H  H100  1  0.98026984  0.54872470  0.19756420  1
  H  H101  1  0.94009593  0.58335931  0.17960298  1
  H  H102  1  0.90545886  0.65479112  0.23913644  1
  H  H103  1  0.94570185  0.61994941  0.25707328  1
  H  H104  1  0.22104967  0.39107416  0.81492456  1
  H  H105  1  0.26066254  0.35410406  0.83310865  1
  H  H106  1  0.27862798  0.45075352  0.84279628  1
  H  H107  1  0.23901837  0.48763534  0.82459614  1
  H  H108  1  0.23377560  0.35449985  0.22015834  1
  H  H109  1  0.27460942  0.32060488  0.19596839  1
  H  H110  1  0.26385385  0.42434139  0.17181363  1
  H  H111  1  0.22313665  0.45792780  0.19597908  1
  H  H112  1  0.63528010  0.45301930  0.99195001  1
  H  H113  1  0.58728056  0.45016983  0.99817244  1
  H  H114  1  0.61120237  0.49442152  0.02662471  1
  H  H115  1  0.59860259  0.51101793  0.98133900  1
  H  H116  1  0.61934072  0.52238326  0.99865701  1
  H  H117  1  0.55013579  0.56393627  0.04943981  1
  H  H118  1  0.58372146  0.54072352  0.05290321  1
  H  H119  1  0.55195911  0.50277668  0.00001551  1
  H  H120  1  0.53077278  0.53787022  0.02024504  1
  H  H121  1  0.53456234  0.58510213  0.00299229  1
  H  H122  1  0.55095406  0.55060944  0.98102766  1
  H  H123  1  0.58049473  0.58205550  0.99360403  1
  H  H124  1  0.57300778  0.60185172  0.03296518  1
  H  H125  1  0.00284455  0.25471919  0.68482550  1
  H  H126  1  0.01055128  0.30940018  0.69828998  1
  H  H127  1  0.09410106  0.24177542  0.68823751  1
  H  H128  1  0.08548447  0.18784765  0.67490536  1
  H  H129  1  0.10085274  0.28534791  0.69976676  1
  H  H130  1  0.10866756  0.34012005  0.71284407  1
  H  H131  1  0.02605542  0.40722438  0.72276699  1
  H  H132  1  0.01730465  0.35326864  0.70976639  1
  H  H133  1  0.08267259  0.88182993  0.66882962  1
  H  H134  1  0.09250487  0.82133269  0.68137482  1
  H  H135  1  0.00978624  0.85686524  0.69926857  1
  H  H136  1  0.00091187  0.91709731  0.68649472  1
  H  H137  1  0.01755669  0.80844829  0.71000098  1
  H  H138  1  0.02820822  0.74850811  0.72369008  1
  H  H139  1  0.10972362  0.71463287  0.70577268  1
  H  H140  1  0.10011581  0.77413321  0.69181249  1
  H  H141  1  0.08202035  0.83815235  0.37609852  1
  H  H142  1  0.09205089  0.77326640  0.36223225  1
  H  H143  1  0.01070797  0.80640304  0.34836110  1
  H  H144  1  0.00165567  0.87100775  0.36243759  1
  H  H145  1  0.01881251  0.75488930  0.33583277  1
  H  H146  1  0.02919838  0.68986625  0.32193008  1
  H  H147  1  0.10944605  0.65787849  0.33584483  1
  H  H148  1  0.10006829  0.72272673  0.34975921  1
  H  H149  1  0.08192293  0.13849472  0.36067707  1
  H  H150  1  0.09080600  0.18825225  0.34713069  1
  H  H151  1  0.01157238  0.26722670  0.36889027  1
  H  H152  1  0.00355251  0.21647316  0.38221303  1
  H  H153  1  0.01862246  0.30797865  0.35755804  1
  H  H154  1  0.02774554  0.35688081  0.34293757  1
  H  H155  1  0.10594462  0.27780136  0.32187282  1
  H  H156  1  0.09777421  0.22795464  0.33617506  1
  H  H157  1  0.06243393  0.01513643  0.46954388  1
  H  H158  1  0.08592682  0.00603736  0.50313580  1
  H  H159  1  0.98831208  0.06519932  0.50720402  1
  H  H160  1  0.98759801  0.07009678  0.54767002  1
  H  H161  1  0.06047625  0.03762831  0.57788431  1
  H  H162  1  0.08523609  0.01588632  0.54194172  1
  C  C163  1  0.01976563  0.03356935  0.62126108  1
  C  C164  1  0.02381243  1.00216952  0.63190758  1
  C  C165  1  0.02945495  1.00170450  0.65366789  1
  C  C166  1  0.03182826  0.03296330  0.66478880  1
  C  C167  1  0.02915502  0.06467166  0.65455017  1
  C  C168  1  0.02301446  0.06465001  0.63256093  1
  C  C169  1  0.01433363  0.03397239  0.59924002  1
  C  C170  1  0.01266723  0.06385949  0.58820475  1
  C  C171  1  0.01424782  0.09528224  0.59962955  1
  C  C172  1  0.01996523  0.09603334  0.62159286  1
  C  C173  1  0.02439201  0.12589471  0.63241144  1
  C  C174  1  0.03054478  0.12658917  0.65407049  1
  C  C175  1  0.03235721  0.09617355  0.66495835  1
  C  C176  1  0.02053119  0.00528521  0.42963556  1
  C  C177  1  0.02410976  0.97097783  0.41790501  1
  C  C178  1  0.02936045  0.96446082  0.39540052  1
  C  C179  1  0.03143333  0.99270022  0.38448145  1
  C  C180  1  0.02885458  0.02737566  0.39561774  1
  C  C181  1  0.02341871  0.03336774  0.41844970  1
  C  C182  1  0.01576207  0.01160770  0.45238255  1
  C  C183  1  0.01455248  0.04443455  0.46420119  1
  C  C184  1  0.01599774  0.07277198  0.45318920  1
  C  C185  1  0.02068114  0.06778820  0.43041630  1
  C  C186  1  0.02427914  0.09501723  0.41946025  1
  C  C187  1  0.02974653  0.08975407  0.39697188  1
  C  C188  1  0.03162552  0.05612965  0.38530341  1
  C  C189  1  0.03103748  0.56194241  0.79119259  1
  C  C190  1  0.08303881  0.59494996  0.76961494  1
  C  C191  1  0.08729499  0.62312933  0.76074125  1
  C  C192  1  0.07792128  0.63281264  0.74055534  1
  C  C193  1  0.06724102  0.61001218  0.72922531  1
  C  C194  1  0.06505132  0.58092746  0.73864915  1
  C  C195  1  0.07711124  0.46982851  0.74710552  1
  C  C196  1  0.12869831  0.51752485  0.76516308  1
  C  C197  1  0.15264651  0.51031689  0.77386539  1
  C  C198  1  0.15839010  0.49251613  0.79268344  1
  C  C199  1  0.13753086  0.48815115  0.80339036  1
  C  C200  1  0.11386106  0.49763977  0.79418737  1
  C  C201  1  0.03123939  0.53385277  0.26101182  1
  C  C202  1  0.08460854  0.43721394  0.27674239  1
  C  C203  1  0.08732549  0.40423522  0.28476570  1
  C  C204  1  0.07663349  0.40592371  0.30573690  1
  C  C205  1  0.06631398  0.44137150  0.31842142  1
  C  C206  1  0.06496110  0.47290870  0.30951621  1
  C  C207  1  0.07679492  0.56849438  0.29895788  1
  C  C208  1  0.12766680  0.47095912  0.27690524  1
  C  C209  1  0.15233155  0.45217042  0.26618056  1
  C  C210  1  0.15732570  0.46163361  0.24588535  1
  C  C211  1  0.13676640  0.49124255  0.23791492  1
  C  C212  1  0.11249553  0.50783197  0.24929865  1
  C  C213  1  0.85871866  0.66551501  0.17235422  1
  C  C214  1  0.85795129  0.64036249  0.15536147  1
  C  C215  1  0.84052493  0.64549221  0.13820114  1
  C  C216  1  0.84582048  0.61373664  0.12278624  1
  C  C217  1  0.83083604  0.61501699  0.10543039  1
  C  C218  1  0.80991322  0.64861256  0.10264409  1
  C  C219  1  0.80345113  0.68036451  0.11788953  1
  C  C220  1  0.81862273  0.67906447  0.13533621  1
  C  C221  1  0.80522387  0.61916353  0.06838590  1
  C  C222  1  0.78823471  0.62896725  0.04986395  1
  C  C223  1  0.76595515  0.62095321  0.04973631  1
  C  C224  1  0.74906124  0.63279683  0.03311622  1
  C  C225  1  0.75315102  0.65406683  0.01760168  1
  C  C226  1  0.77554467  0.66203566  0.01804779  1
  C  C227  1  0.79355418  0.64858425  0.03384440  1
  C  C228  1  0.81830579  0.65454962  0.03479773  1
  C  C229  1  0.75973553  0.60030074  0.06652408  1
  C  C230  1  0.73250433  0.66838941  0.00196187  1
  C  C231  1  0.72454820  0.62647447  0.03353136  1
  C  C232  1  0.67931134  0.66038867  0.04405825  1
  C  C233  1  0.67632793  0.62716279  0.03817086  1
  C  C234  1  0.65140460  0.62808084  0.03725664  1
  C  C235  1  0.62910189  0.66185884  0.04246286  1
  C  C236  1  0.63257930  0.69496265  0.04916470  1
  C  C237  1  0.65753176  0.69416098  0.05019615  1
  C  C238  1  0.60276480  0.66236320  0.04105649  1
  C  C239  1  0.59871628  0.63181723  0.03503003  1
  C  C240  1  0.77949603  0.68568770  0.00189079  1
  C  C241  1  0.80045022  0.67561460  0.96599447  1
  C  C242  1  0.79716105  0.71306187  0.96678710  1
  C  C243  1  0.81029708  0.72332485  0.95125386  1
  C  C244  1  0.82734939  0.69666856  0.93437449  1
  C  C245  1  0.82906144  0.65947179  0.93348173  1
  C  C246  1  0.81534312  0.64947564  0.94867963  1
  C  C247  1  0.84292536  0.70568747  0.91904961  1
  C  C248  1  0.85805054  0.67971661  0.90197785  1
  C  C249  1  0.33323514  0.36186802  0.87493732  1
  C  C250  1  0.34727612  0.32942390  0.88400582  1
  C  C251  1  0.36389836  0.32830764  0.90131478  1
  C  C252  1  0.37869075  0.29451238  0.91000705  1
  C  C253  1  0.39339256  0.29404143  0.92758895  1
  C  C254  1  0.39406769  0.32752454  0.93703482  1
  C  C255  1  0.38066614  0.36095260  0.92831075  1
  C  C256  1  0.36570374  0.36149511  0.91090486  1
  C  C257  1  0.41980936  0.29776424  0.96608925  1
  C  C258  1  0.42923241  0.31148492  0.98612641  1
  C  C259  1  0.45288064  0.31613802  0.98450871  1
  C  C260  1  0.46061307  0.33201624  0.00286020  1
  C  C261  1  0.44495319  0.34368512  0.02260100  1
  C  C262  1  0.42118206  0.33944785  0.02372117  1
  C  C263  1  0.41311577  0.32322633  0.00564676  1
  C  C264  1  0.38783153  0.31858634  0.00608550  1
  C  C265  1  0.47026353  0.30229788  0.96396103  1
  C  C266  1  0.45452804  0.36073512  0.04126108  1
  C  C267  1  0.48560396  0.33727208  0.00184971  1
  C  C268  1  0.50084999  0.38571708  0.00217816  1
  C  C269  1  0.52625909  0.35814274  0.00235519  1
  C  C270  1  0.54699202  0.36861698  0.00493559  1
  C  C271  1  0.54272593  0.40660409  0.00719602  1
  C  C272  1  0.51713522  0.43387467  0.00575856  1
  C  C273  1  0.49632191  0.42357958  0.00326318  1
  C  C274  1  0.56402003  0.41860171  0.01150735  1
  C  C275  1  0.58916090  0.39655899  0.00898599  1
  C  C276  1  0.40470262  0.35239916  0.04469283  1
  C  C277  1  0.39618436  0.32981340  0.07624281  1
  C  C278  1  0.37720187  0.36611551  0.08289100  1
  C  C279  1  0.35869893  0.37185560  0.09945331  1
  C  C280  1  0.35899907  0.34205574  0.11058671  1
  C  C281  1  0.37947824  0.30588281  0.10432545  1
  C  C282  1  0.39803511  0.30005357  0.08754963  1
  C  C283  1  0.33880386  0.35039915  0.12741307  1
  C  C284  1  0.33505696  0.32581421  0.14012103  1
  C  C285  1  0.00776268  0.58106417  0.80586425  1
  C  C286  1  0.98812936  0.59740793  0.81819606  1
  C  C287  1  0.96552488  0.61653114  0.83264951  1
  C  C288  1  0.96136537  0.60090351  0.85110486  1
  C  C289  1  0.93942056  0.61934635  0.86508578  1
  C  C290  1  0.91999864  0.65495187  0.86184603  1
  C  C291  1  0.92407336  0.67060651  0.84347020  1
  C  C292  1  0.94613101  0.65206556  0.82940979  1
  C  C293  1  0.89725540  0.67199890  0.87636866  1
  C  C294  1  0.87810837  0.68198148  0.88942717  1
  C  C295  1  0.00837299  0.54923139  0.24896990  1
  C  C296  1  0.98901832  0.56332433  0.23899933  1
  C  C297  1  0.96603313  0.58213824  0.22857963  1
  C  C298  1  0.96380961  0.57207214  0.20653681  1
  C  C299  1  0.94150490  0.59123807  0.19659981  1
  C  C300  1  0.91972547  0.62179474  0.20804233  1
  C  C301  1  0.92195172  0.63153891  0.23014129  1
  C  C302  1  0.94426725  0.61228777  0.24005645  1
  C  C303  1  0.89678878  0.64142906  0.19785638  1
  C  C304  1  0.87851186  0.65371882  0.18628063  1
  C  C305  1  0.18343103  0.47879898  0.80083016  1
  C  C306  1  0.20419321  0.46321503  0.80891979  1
  C  C307  1  0.22706817  0.44214763  0.81877906  1
  C  C308  1  0.23380689  0.40385863  0.82118223  1
  C  C309  1  0.25563390  0.38344031  0.83130428  1
  C  C310  1  0.27201371  0.40005783  0.83982714  1
  C  C311  1  0.26574661  0.43802522  0.83675941  1
  C  C312  1  0.24393602  0.45840623  0.82663485  1
  C  C313  1  0.29379202  0.37998943  0.85120931  1
  C  C314  1  0.31275778  0.36657176  0.86191578  1
  C  C315  1  0.18173633  0.44295723  0.23391196  1
  C  C316  1  0.20244285  0.42679740  0.22283374  1
  C  C317  1  0.22575771  0.40825049  0.20949466  1
  C  C318  1  0.24069489  0.36923127  0.20943169  1
  C  C319  1  0.26313164  0.35062322  0.19612894  1
  C  C320  1  0.27190028  0.37001387  0.18213059  1
  C  C321  1  0.25703595  0.40936522  0.18245023  1
  C  C322  1  0.23462625  0.42788866  0.19574379  1
  C  C323  1  0.29474674  0.35070881  0.16831250  1
  C  C324  1  0.31386968  0.33850008  0.15515049  1
  C  C325  1  0.60222888  0.45973347  0.00301898  1
  C  C326  1  0.59669638  0.49734088  0.01451315  1
  C  C327  1  0.59985412  0.52246790  0.99783285  1
  C  C328  1  0.56954840  0.54942474  0.04048949  1
  C  C329  1  0.54992468  0.52760500  0.01111634  1
  C  C330  1  0.55157026  0.55832406  -0.00170759  1
  C  C331  1  0.57737733  0.56209535  0.00330169  1
  C  C332  1  0.57478513  0.57390612  0.02648560  1
  C  C333  1  0.03494665  0.15752787  0.66405712  1
  C  C334  1  0.03884604  0.18486664  0.67138651  1
  C  C335  1  0.04349187  0.21661206  0.67910592  1
  C  C336  1  0.02287824  0.25208424  0.68580647  1
  C  C337  1  0.02748263  0.28309581  0.69341699  1
  C  C338  1  0.05316792  0.28099769  0.69482105  1
  C  C339  1  0.07381743  0.24558506  0.68784754  1
  C  C340  1  0.06910979  0.21467746  0.68025804  1
  C  C341  1  0.05822910  0.31399877  0.70300793  1
  C  C342  1  0.08394390  0.31176853  0.70440800  1
  C  C343  1  0.08862954  0.34278650  0.71185651  1
  C  C344  1  0.06806275  0.37820147  0.71848702  1
  C  C345  1  0.04238674  0.38034745  0.71741028  1
  C  C346  1  0.03760141  0.34945259  0.70997149  1
  C  C347  1  0.07287630  0.40976598  0.72648588  1
  C  C348  1  0.07538483  0.43715400  0.73545508  1
  C  C349  1  0.03300442  0.96925695  0.66357538  1
  C  C350  1  0.03641951  0.93967145  0.67048600  1
  C  C351  1  0.04121514  0.90459054  0.67742167  1
  C  C352  1  0.06690252  0.87608877  0.67584269  1
  C  C353  1  0.07224462  0.84179732  0.68293201  1
  C  C354  1  0.05208202  0.83359884  0.69194967  1
  C  C355  1  0.02621753  0.86165302  0.69287564  1
  C  C356  1  0.02098918  0.89596447  0.68574906  1
  C  C357  1  0.05793839  0.79728631  0.69995281  1
  C  C358  1  0.03797101  0.78862496  0.70898981  1
  C  C359  1  0.04379317  0.75480023  0.71681198  1
  C  C360  1  0.06985864  0.72752617  0.71622732  1
  C  C361  1  0.08961809  0.73574170  0.70674838  1
  C  C362  1  0.08391166  0.76956135  0.69886460  1
  C  C363  1  0.07571961  0.69331407  0.72461304  1
  C  C364  1  0.07822376  0.66454547  0.73207710  1
  C  C365  1  0.03288374  0.92906850  0.38452966  1
  C  C366  1  0.03639435  0.89718644  0.37703362  1
  C  C367  1  0.04136477  0.85970626  0.36946052  1
  C  C368  1  0.06667244  0.83077560  0.36959278  1
  C  C369  1  0.07211890  0.79405680  0.36174918  1
  C  C370  1  0.05241993  0.78383619  0.35341757  1
  C  C371  1  0.02683853  0.81256385  0.35405083  1
  C  C372  1  0.02150868  0.84929721  0.36192596  1
  C  C373  1  0.05835691  0.74475829  0.34468848  1
  C  C374  1  0.03878232  0.73422031  0.33633962  1
  C  C375  1  0.04446420  0.69745707  0.32843526  1
  C  C376  1  0.07000936  0.66894191  0.32841865  1
  C  C377  1  0.08958336  0.67951340  0.33626476  1
  C  C378  1  0.08401072  0.71632486  0.34414093  1
  C  C379  1  0.07595940  0.63128798  0.32020975  1
  C  C380  1  0.07705118  0.60184239  0.31076706  1
  C  C381  1  0.03361174  0.11815004  0.38694123  1
  C  C382  1  0.03727085  0.14360853  0.37968119  1
  C  C383  1  0.04189242  0.17321496  0.37209519  1
  C  C384  1  0.06650191  0.16688108  0.36221329  1
  C  C385  1  0.07137675  0.19543547  0.35460954  1
  C  C386  1  0.05192743  0.23266505  0.35642764  1
  C  C387  1  0.02738423  0.23922758  0.36669010  1
  C  C388  1  0.02261023  0.21052884  0.37428027  1
  C  C389  1  0.05718588  0.26292957  0.34800054  1
  C  C390  1  0.03793635  0.30033845  0.34969591  1
  C  C391  1  0.04291804  0.32830620  0.34141976  1
  C  C392  1  0.06740240  0.32090859  0.33080448  1
  C  C393  1  0.08675797  0.28392014  0.32961508  1
  C  C394  1  0.08188173  0.25584092  0.33784586  1
  C  C395  1  0.07253257  0.34887661  0.32169632  1
  C  C396  1  0.07555771  0.37442188  0.31401764  1
  C  C397  1  0.02413144  0.04137168  0.48644297  1
  C  C398  1  0.05169173  0.02412165  0.48533427  1
  C  C399  1  0.06465480  0.01929014  0.50385254  1
  C  C400  1  0.05049337  0.03166776  0.52429012  1
  C  C401  1  0.02254586  0.04791032  0.52571681  1
  C  C402  1  0.00959705  0.05255989  0.50627127  1
  C  C403  1  0.00886703  0.05872539  0.54650081  1
  C  C404  1  0.02273396  0.05462506  0.56489401  1
  C  C405  1  0.05028394  0.03978452  0.56317071  1
  C  C406  1  0.06394781  0.02799278  0.54333043  1
  N  N407  1  0.07232346  0.57437121  0.75859299  1
  N  N408  1  0.10972783  0.51152335  0.77525658  1
  N  N409  1  0.07335552  0.47064439  0.28890566  1
  N  N410  1  0.10792412  0.49592523  0.26766165  1
  N  N411  1  0.57058963  0.51540194  0.02660941  1
  O  O412  1  0.02902190  0.55323655  0.77138011  1
  O  O413  1  0.05353482  0.55418536  0.79868864  1
  O  O414  1  0.07398153  0.47347519  0.76775283  1
  O  O415  1  0.08029467  0.49458342  0.73722047  1
  O  O416  1  0.02917898  0.54212245  0.28142719  1
  O  O417  1  0.05343814  0.51344996  0.25069738  1
  O  O418  1  0.07160372  0.57020396  0.27912330  1
  O  O419  1  0.08041305  0.53970207  0.30830175  1
  O  O420  1  0.79530339  0.65118248  0.08537034  1
  O  O421  1  0.78914945  0.66286908  0.98101252  1
  O  O422  1  0.70338059  0.66085263  0.04392131  1
  O  O423  1  0.40801137  0.32991475  0.95416426  1
  O  O424  1  0.41317123  0.32293895  0.05877521  1
  O  O425  1  0.47984651  0.37682737  0.00102404  1
  O  O426  1  0.62698459  0.43767534  0.99736933  1
