# generated using pymatgen
data_Mg3MnH248C232(NO17)2
_symmetry_space_group_name_H-M   'P 1'
_cell_length_a   49.31222447
_cell_length_b   45.43158077
_cell_length_c   30.63832670
_cell_angle_alpha   94.59273763
_cell_angle_beta   89.33642525
_cell_angle_gamma   94.57588683
_symmetry_Int_Tables_number   1
_chemical_formula_structural   Mg3MnH248C232(NO17)2
_chemical_formula_sum   'Mg3 Mn1 H248 C232 N2 O34'
_cell_volume   68200.61630107
_cell_formula_units_Z   1
loop_
 _symmetry_equiv_pos_site_id
 _symmetry_equiv_pos_as_xyz
  1  'x, y, z'
loop_
 _atom_site_type_symbol
 _atom_site_label
 _atom_site_symmetry_multiplicity
 _atom_site_fract_x
 _atom_site_fract_y
 _atom_site_fract_z
 _atom_site_occupancy
  Mg  Mg0  1  0.51338171  0.51314492  0.47227604  1
  Mg  Mg1  1  0.49110742  0.49314131  0.69922809  1
  Mg  Mg2  1  0.50108551  0.49974963  0.58407859  1
  Mn  Mn3  1  0.00067524  0.00046301  0.08064827  1
  H  H4  1  0.97289326  0.06335544  0.11625919  1
  H  H5  1  0.94997329  0.98822752  0.03482406  1
  H  H6  1  0.90190568  0.00072667  0.03538160  1
  H  H7  1  0.92612364  0.08028075  0.11536931  1
  H  H8  1  0.02955379  0.93851040  0.05096102  1
  H  H9  1  0.04967297  0.01386500  0.13346667  1
  H  H10  1  0.09822717  1.00361477  0.13283351  1
  H  H11  1  0.07672377  0.92291266  0.05307026  1
  H  H12  1  0.50525771  0.54966829  0.53604088  1
  H  H13  1  0.46573590  0.46659408  0.63799887  1
  H  H14  1  0.49683668  0.45483779  0.63514226  1
  H  H15  1  0.53520779  0.53667138  0.53576668  1
  H  H16  1  0.26784370  0.46499433  0.42121547  1
  H  H17  1  0.31904731  0.43461034  0.38721720  1
  H  H18  1  0.31374670  0.39916432  0.32635622  1
  H  H19  1  0.28840848  0.37561697  0.26272166  1
  H  H20  1  0.22092438  0.42786375  0.29741793  1
  H  H21  1  0.24608524  0.45160419  0.36162661  1
  H  H22  1  0.25660380  0.35021347  0.22149509  1
  H  H23  1  0.27148756  0.38201941  0.19775664  1
  H  H24  1  0.25622288  0.42081647  0.10713149  1
  H  H25  1  0.27731358  0.39659939  0.12991889  1
  H  H26  1  0.25846355  0.42058247  0.16465554  1
  H  H27  1  0.22028810  0.33173123  0.23805805  1
  H  H28  1  0.22127691  0.30122578  0.19847956  1
  H  H29  1  0.18977120  0.31379119  0.21724600  1
  H  H30  1  0.17434696  0.36403954  0.04127625  1
  H  H31  1  0.15162423  0.34978106  0.08122633  1
  H  H32  1  0.17307393  0.32631883  0.05084471  1
  H  H33  1  0.16745268  0.30026464  0.10572497  1
  H  H34  1  0.17366285  0.29684138  0.16210755  1
  H  H35  1  0.14295712  0.26684819  0.13351718  1
  H  H36  1  0.10112009  0.23442210  0.12520486  1
  H  H37  1  0.05343084  0.30923697  0.15595065  1
  H  H38  1  0.09600667  0.34234001  0.16365872  1
  H  H39  1  0.03060176  0.25956483  0.14300756  1
  H  H40  1  0.06378970  0.20973701  0.10351004  1
  H  H41  1  0.19367287  0.40320321  0.05564568  1
  H  H42  1  0.22641821  0.41942320  0.06988584  1
  H  H43  1  0.20765645  0.43365899  0.00686305  1
  H  H44  1  0.22602642  0.46321011  0.94787143  1
  H  H45  1  0.27770352  0.39340203  0.90574068  1
  H  H46  1  0.25900247  0.36422389  0.96502488  1
  H  H47  1  0.25803300  0.47131893  0.88849044  1
  H  H48  1  0.29046434  0.41785086  0.85645487  1
  H  H49  1  0.56439112  0.26634634  0.82242220  1
  H  H50  1  0.50561377  0.25378694  0.85296458  1
  H  H51  1  0.50420098  0.20955897  0.90122082  1
  H  H52  1  0.52415789  0.18792682  0.96306424  1
  H  H53  1  0.59814681  0.24408859  0.94972334  1
  H  H54  1  0.57759293  0.26729351  0.88919158  1
  H  H55  1  0.55208037  0.16522440  0.00711539  1
  H  H56  1  0.53959069  0.19752101  0.03395915  1
  H  H57  1  0.55433254  0.23874482  0.13497735  1
  H  H58  1  0.53221172  0.21272964  0.10446033  1
  H  H59  1  0.55452194  0.23775916  0.07716775  1
  H  H60  1  0.58966081  0.15201435  0.98876779  1
  H  H61  1  0.58548497  0.12087807  0.02032573  1
  H  H62  1  0.61837398  0.13716777  0.00901875  1
  H  H63  1  0.63089085  0.19036616  0.19655690  1
  H  H64  1  0.65343834  0.17737701  0.15515267  1
  H  H65  1  0.63004826  0.15234260  0.18008466  1
  H  H66  1  0.63570561  0.12540021  0.11993443  1
  H  H67  1  0.62969616  0.12006631  0.06270025  1
  H  H68  1  0.66030438  0.09349122  0.08205928  1
  H  H69  1  0.70129992  0.06722741  0.08751354  1
  H  H70  1  0.75102109  0.14971198  0.08162322  1
  H  H71  1  0.70920437  0.17628193  0.07635300  1
  H  H72  1  0.77261423  0.10693826  0.09448975  1
  H  H73  1  0.73908392  0.04646197  0.08463806  1
  H  H74  1  0.61333602  0.22525676  0.19051495  1
  H  H75  1  0.58469676  0.24159783  0.17223017  1
  H  H76  1  0.60209554  0.25885145  0.23579136  1
  H  H77  1  0.58753543  0.29282301  0.29627193  1
  H  H78  1  0.52470814  0.22674904  0.33108789  1
  H  H79  1  0.53856950  0.19328920  0.26853653  1
  H  H80  1  0.56161903  0.30359081  0.35796275  1
  H  H81  1  0.50974412  0.26424330  0.37701010  1
  H  H82  1  0.44267692  0.72985165  0.79248442  1
  H  H83  1  0.50357364  0.73803250  0.81473939  1
  H  H84  1  0.50632899  0.78400019  0.87631179  1
  H  H85  1  0.48495799  0.80890834  0.94018014  1
  H  H86  1  0.40998489  0.75514832  0.91354556  1
  H  H87  1  0.43341197  0.72499558  0.85639895  1
  H  H88  1  0.45400774  0.83568170  0.98651655  1
  H  H89  1  0.46550170  0.80418198  0.00902853  1
  H  H90  1  0.44592307  0.76437662  0.10036029  1
  H  H91  1  0.46954664  0.78990409  0.07718529  1
  H  H92  1  0.44846771  0.76480784  0.04280382  1
  H  H93  1  0.41725202  0.84941946  0.96859962  1
  H  H94  1  0.41992958  0.88117719  0.00638467  1
  H  H95  1  0.38764018  0.86450943  0.98977167  1
  H  H96  1  0.36780165  0.81527158  0.16662457  1
  H  H97  1  0.34702985  0.82792672  0.12630971  1
  H  H98  1  0.36960974  0.85309296  0.15767232  1
  H  H99  1  0.36564803  0.87820390  0.10227555  1
  H  H100  1  0.37490195  0.88374580  0.04718665  1
  H  H101  1  0.34247306  0.90969890  0.07190372  1
  H  H102  1  0.30067969  0.93506232  0.08185506  1
  H  H103  1  0.25301024  0.85259941  0.04681665  1
  H  H104  1  0.29556821  0.82673898  0.03872890  1
  H  H105  1  0.23003186  0.89419974  0.07494951  1
  H  H106  1  0.26281211  0.95514136  0.07686026  1
  H  H107  1  0.38507092  0.77930654  0.15413414  1
  H  H108  1  0.41538511  0.76356690  0.13698709  1
  H  H109  1  0.39516034  0.74707361  0.19648143  1
  H  H110  1  0.40933681  0.71471552  0.25100722  1
  H  H111  1  0.46723771  0.78515284  0.30296457  1
  H  H112  1  0.45443291  0.81616602  0.24564506  1
  H  H113  1  0.43695699  0.70516072  0.31154191  1
  H  H114  1  0.48028316  0.75564145  0.34231409  1
  H  H115  1  0.70283694  0.56566465  0.77616401  1
  H  H116  1  0.74059321  0.51422195  0.76278824  1
  H  H117  1  0.77332535  0.51256150  0.82119247  1
  H  H118  1  0.79766328  0.53521280  0.88646295  1
  H  H119  1  0.75132674  0.61182579  0.88532520  1
  H  H120  1  0.72819905  0.59036569  0.81811835  1
  H  H121  1  0.82298321  0.56659803  0.93351176  1
  H  H122  1  0.79354513  0.55117837  0.95974801  1
  H  H123  1  0.75747385  0.57146055  0.05776092  1
  H  H124  1  0.77750680  0.54585659  0.02903141  1
  H  H125  1  0.75855453  0.56938908  -0.00001860  1
  H  H126  1  0.84255306  0.60461839  0.92192050  1
  H  H127  1  0.87092441  0.60198731  0.95593878  1
  H  H128  1  0.86011561  0.63697238  0.94552945  1
  H  H129  1  0.81666092  0.65352627  0.13169801  1
  H  H130  1  0.82984466  0.67819831  0.09313818  1
  H  H131  1  0.85108955  0.65404131  0.11604216  1
  H  H132  1  0.87543861  0.65830856  0.05904080  1
  H  H133  1  0.87836531  0.65091812  0.00144784  1
  H  H134  1  0.90741528  0.68430537  0.02751101  1
  H  H135  1  0.93787921  0.72940417  0.04012667  1
  H  H136  1  0.87012901  0.78296910  0.02802604  1
  H  H137  1  0.83885393  0.73717596  0.01935686  1
  H  H138  1  0.91578599  0.80683234  0.04827296  1
  H  H139  1  0.96326505  0.76926717  0.02501622  1
  H  H140  1  0.77980698  0.63612031  0.11847453  1
  H  H141  1  0.76208155  0.60203496  0.10096370  1
  H  H142  1  0.75009149  0.62605803  0.16243821  1
  H  H143  1  0.71877947  0.61341408  0.22179300  1
  H  H144  1  0.77364503  0.55177109  0.26386964  1
  H  H145  1  0.80480387  0.56407265  0.20276316  1
  H  H146  1  0.70686976  0.59197737  0.28036043  1
  H  H147  1  0.73673860  0.54743912  0.32761792  1
  H  H148  1  0.04405434  0.09074813  0.06136581  1
  H  H149  1  0.05972591  0.09080735  0.11318709  1
  H  H150  1  0.00505502  0.11512199  0.09428790  1
  H  H151  1  0.01594743  0.11075207  0.14776625  1
  H  H152  1  0.04856072  0.15009718  0.08556609  1
  H  H153  1  0.05567875  0.14593133  0.14088036  1
  H  H154  1  0.00792410  0.17479074  0.10303255  1
  H  H155  1  0.00471699  0.16104085  0.15495599  1
  H  H156  1  0.04565778  0.19336735  0.18164080  1
  H  H157  1  0.01629126  0.21068711  0.17069811  1
  H  H158  1  0.87799001  0.03977565  0.13163435  1
  H  H159  1  0.86976945  0.01726421  0.08340337  1
  H  H160  1  0.86215242  0.08246789  0.10362708  1
  H  H161  1  0.86773781  0.07031469  0.04829550  1
  H  H162  1  0.82771421  0.03549308  0.10598736  1
  H  H163  1  0.83133216  0.03106448  0.04861606  1
  H  H164  1  0.80726062  0.08120205  0.10457511  1
  H  H165  1  0.81369668  0.08410579  0.04830402  1
  H  H166  1  0.78246523  0.02689009  0.07075889  1
  H  H167  1  0.77990481  0.04722402  0.02505760  1
  H  H168  1  0.13214123  0.98243717  0.10199848  1
  H  H169  1  0.12489905  0.97609670  0.04579583  1
  H  H170  1  0.13872473  0.92771359  0.10544021  1
  H  H171  1  0.13413117  0.92261938  0.04799389  1
  H  H172  1  0.17377075  0.97112571  0.09334987  1
  H  H173  1  0.17029599  0.96276907  0.03638377  1
  H  H174  1  0.19509642  0.92659734  0.10338040  1
  H  H175  1  0.18935540  0.91232796  0.04862378  1
  H  H176  1  0.21950300  0.97388074  0.06576823  1
  H  H177  1  0.22010702  0.94938988  0.01874754  1
  H  H178  1  0.94626938  0.91101480  0.04303927  1
  H  H179  1  0.94885037  0.91525603  0.10103444  1
  H  H180  1  0.99266658  0.88965135  0.03982039  1
  H  H181  1  0.99291444  0.89211327  0.09755088  1
  H  H182  1  0.94996843  0.85502153  0.03981248  1
  H  H183  1  0.95017052  0.85792864  0.09755914  1
  H  H184  1  0.99241735  0.83053383  0.03557818  1
  H  H185  1  0.99910264  0.83982766  0.09153565  1
  H  H186  1  0.95747753  0.80693817  0.11136378  1
  H  H187  1  0.98644925  0.79038464  0.09021133  1
  H  H188  1  0.41298387  0.43158372  0.73527429  1
  H  H189  1  0.39272681  0.49410845  0.75352390  1
  H  H190  1  0.35780219  0.43868574  0.73903088  1
  H  H191  1  0.37379485  0.43657972  0.78947757  1
  H  H192  1  0.29687585  0.48393211  0.83617549  1
  H  H193  1  0.32018325  0.42751298  0.79391804  1
  H  H194  1  0.35392040  0.48501804  0.81780761  1
  H  H195  1  0.33746807  0.48557712  0.76730331  1
  H  H196  1  0.48667626  0.39284574  0.69812857  1
  H  H197  1  0.54514096  0.39541715  0.73464537  1
  H  H198  1  0.49770866  0.36465214  0.77340844  1
  H  H199  1  0.50211311  0.34453698  0.72269355  1
  H  H200  1  0.55819043  0.31955723  0.83529039  1
  H  H201  1  0.50596464  0.30301084  0.78175886  1
  H  H202  1  0.54942673  0.33512129  0.74259077  1
  H  H203  1  0.54731028  0.35743094  0.79185694  1
  H  H204  1  0.49266875  0.42985998  0.47439001  1
  H  H205  1  0.54777505  0.40613302  0.49600275  1
  H  H206  1  0.49498917  0.37148316  0.48317485  1
  H  H207  1  0.50495736  0.38277693  0.43146209  1
  H  H208  1  0.54361978  0.29353756  0.44892118  1
  H  H209  1  0.49739544  0.32767767  0.41591671  1
  H  H210  1  0.54924392  0.35839149  0.43766522  1
  H  H211  1  0.53841254  0.34568895  0.48808371  1
  H  H212  1  0.46342016  0.57935538  0.41906256  1
  H  H213  1  0.48547693  0.63305785  0.48001178  1
  H  H214  1  0.48737596  0.62863574  0.38380737  1
  H  H215  1  0.45274510  0.62962377  0.39737992  1
  H  H216  1  0.48496671  0.72840333  0.40574219  1
  H  H217  1  0.46688624  0.67284137  0.34530330  1
  H  H218  1  0.46387998  0.67865488  0.44309218  1
  H  H219  1  0.49811983  0.67742009  0.42730833  1
  H  H220  1  0.50918600  0.58530114  0.64269818  1
  H  H221  1  0.45561463  0.59501156  0.69174017  1
  H  H222  1  0.49998597  0.61868384  0.74095504  1
  H  H223  1  0.50936998  0.63434429  0.69164637  1
  H  H224  1  0.45183016  0.70169300  0.72951681  1
  H  H225  1  0.50077590  0.67662761  0.77065879  1
  H  H226  1  0.46488869  0.65797098  0.69131137  1
  H  H227  1  0.45391122  0.63995825  0.73769734  1
  H  H228  1  0.61022818  0.53229445  0.48857443  1
  H  H229  1  0.59635525  0.53301923  0.39076125  1
  H  H230  1  0.64459890  0.56372414  0.43356647  1
  H  H231  1  0.64924005  0.52594579  0.43583318  1
  H  H232  1  0.67794738  0.54423080  0.29609356  1
  H  H233  1  0.69368410  0.55082674  0.39391555  1
  H  H234  1  0.64417780  0.51886276  0.35244768  1
  H  H235  1  0.64078260  0.55697172  0.35166549  1
  H  H236  1  0.43311609  0.48630980  0.45415290  1
  H  H237  1  0.40301658  0.46837328  0.53780668  1
  H  H238  1  0.38060855  0.50882772  0.48454263  1
  H  H239  1  0.38703409  0.48019871  0.44463376  1
  H  H240  1  0.29520571  0.47127752  0.48902064  1
  H  H241  1  0.34158608  0.48447778  0.42443787  1
  H  H242  1  0.35496721  0.44487436  0.48661225  1
  H  H243  1  0.34638597  0.47543012  0.52147731  1
  H  H244  1  0.57057538  0.52364564  0.71245007  1
  H  H245  1  0.60280616  0.50914176  0.62758121  1
  H  H246  1  0.61867895  0.55165701  0.70149640  1
  H  H247  1  0.61670186  0.51730882  0.72416148  1
  H  H248  1  0.70655762  0.51900056  0.69761073  1
  H  H249  1  0.65988346  0.55194883  0.74258075  1
  H  H250  1  0.65456707  0.50073165  0.67220693  1
  H  H251  1  0.65636234  0.53565580  0.65070929  1
  C  C252  1  0.97553533  0.94539875  0.06666576  1
  C  C253  1  0.04533868  0.95252707  0.06901408  1
  C  C254  1  0.05641671  0.99447360  0.11408806  1
  C  C255  1  0.08365969  0.98851997  0.11395681  1
  C  C256  1  0.09255293  0.96413845  0.08851119  1
  C  C257  1  0.07213245  0.94435726  0.06885061  1
  C  C258  1  0.02646938  0.05871366  0.10480303  1
  C  C259  1  0.95667579  0.04972722  0.09861159  1
  C  C260  1  0.94393591  0.00799705  0.05402545  1
  C  C261  1  0.91697696  0.01499230  0.05455247  1
  C  C262  1  0.90899081  0.03903994  0.08172003  1
  C  C263  1  0.93012684  0.05863580  0.09960785  1
  C  C264  1  0.54536740  0.51281579  0.65727170  1
  C  C265  1  0.52253825  0.45934521  0.51154913  1
  C  C266  1  0.56802738  0.53483424  0.47358345  1
  C  C267  1  0.51326204  0.43302430  0.69126710  1
  C  C268  1  0.45910972  0.48526507  0.50905647  1
  C  C269  1  0.48255373  0.54636388  0.65567993  1
  C  C270  1  0.43617782  0.46852916  0.70738646  1
  C  C271  1  0.48655966  0.57006519  0.47517706  1
  C  C272  1  0.28899071  0.45944445  0.42017675  1
  C  C273  1  0.29823243  0.44113476  0.38610647  1
  C  C274  1  0.28245368  0.42770667  0.34911568  1
  C  C275  1  0.29357272  0.40597199  0.31986952  1
  C  C276  1  0.27936891  0.39280894  0.28366761  1
  C  C277  1  0.25343962  0.40128403  0.27511613  1
  C  C278  1  0.24142527  0.42196283  0.30392884  1
  C  C279  1  0.25569950  0.43511561  0.34021771  1
  C  C280  1  0.25195582  0.37061511  0.20688422  1
  C  C281  1  0.23269903  0.36423581  0.16906936  1
  C  C282  1  0.21164168  0.34146073  0.17149366  1
  C  C283  1  0.19255344  0.33682777  0.13723531  1
  C  C284  1  0.19359005  0.35520839  0.10201323  1
  C  C285  1  0.21408480  0.37871391  0.10129292  1
  C  C286  1  0.23432596  0.38284471  0.13398570  1
  C  C287  1  0.25755246  0.40634820  0.13376264  1
  C  C288  1  0.21063505  0.32125188  0.20806904  1
  C  C289  1  0.17222958  0.34876380  0.06718523  1
  C  C290  1  0.17005581  0.31272698  0.13801428  1
  C  C291  1  0.12197038  0.30695137  0.14701694  1
  C  C292  1  0.12346111  0.27655099  0.13703028  1
  C  C293  1  0.09970153  0.25809995  0.13267803  1
  C  C294  1  0.07392181  0.26939903  0.13828032  1
  C  C295  1  0.07306808  0.30016032  0.15009814  1
  C  C296  1  0.09680104  0.31873638  0.15439240  1
  C  C297  1  0.04959176  0.24939831  0.13501334  1
  C  C298  1  0.04960543  0.21946612  0.12721609  1
  C  C299  1  0.21444314  0.39807122  0.06370856  1
  C  C300  1  0.23400319  0.39817570  0.99164693  1
  C  C301  1  0.22379102  0.42543514  0.98570372  1
  C  C302  1  0.23377513  0.44176435  0.95180421  1
  C  C303  1  0.25411664  0.43144205  0.92259729  1
  C  C304  1  0.26259732  0.40273556  0.92785097  1
  C  C305  1  0.25224113  0.38616291  0.96132402  1
  C  C306  1  0.26586336  0.44956052  0.88944468  1
  C  C307  1  0.28567725  0.44103396  0.86008580  1
  C  C308  1  0.54419675  0.27371929  0.83087706  1
  C  C309  1  0.52767233  0.25607972  0.85642790  1
  C  C310  1  0.53910078  0.24055851  0.89026675  1
  C  C311  1  0.52451475  0.21792792  0.91232892  1
  C  C312  1  0.53579429  0.20563786  0.94735671  1
  C  C313  1  0.56209005  0.21567188  0.96148046  1
  C  C314  1  0.57746811  0.23691184  0.93908892  1
  C  C315  1  0.56601291  0.24946453  0.90454046  1
  C  C316  1  0.55827856  0.18671610  0.02494279  1
  C  C317  1  0.57588399  0.18296936  0.06358025  1
  C  C318  1  0.59566056  0.16207314  0.05865182  1
  C  C319  1  0.61294563  0.15911997  0.09408961  1
  C  C320  1  0.61209879  0.17811658  0.13296770  1
  C  C321  1  0.59289957  0.19965845  0.13657506  1
  C  C322  1  0.57421502  0.20183995  0.10248341  1
  C  C323  1  0.55294231  0.22383295  0.10508984  1
  C  C324  1  0.59742286  0.14223667  0.01723699  1
  C  C325  1  0.63247950  0.17459204  0.16791645  1
  C  C326  1  0.63399913  0.13700043  0.08990870  1
  C  C327  1  0.68230142  0.13686114  0.08160839  1
  C  C328  1  0.68008292  0.10608132  0.08319177  1
  C  C329  1  0.70345506  0.09113428  0.08533682  1
  C  C330  1  0.72955931  0.10657772  0.08582203  1
  C  C331  1  0.73109169  0.13756626  0.08256208  1
  C  C332  1  0.70780040  0.15250991  0.07977488  1
  C  C333  1  0.75449946  0.09182794  0.08786235  1
  C  C334  1  0.75666560  0.06220180  0.08011105  1
  C  C335  1  0.59262167  0.22021741  0.17750901  1
  C  C336  1  0.56972929  0.22481776  0.24631030  1
  C  C337  1  0.58428013  0.25231563  0.25517291  1
  C  C338  1  0.57653576  0.27113904  0.29003151  1
  C  C339  1  0.55463570  0.26295945  0.31802558  1
  C  C340  1  0.54121477  0.23426074  0.30969559  1
  C  C341  1  0.54888308  0.21536042  0.27451860  1
  C  C342  1  0.54808112  0.28326670  0.35461144  1
  C  C343  1  0.52744987  0.27978556  0.38453911  1
  C  C344  1  0.46316768  0.72218960  0.79169745  1
  C  C345  1  0.48169731  0.73678630  0.82091181  1
  C  C346  1  0.47129381  0.75302373  0.85928385  1
  C  C347  1  0.48556592  0.77649410  0.88517844  1
  C  C348  1  0.47341738  0.79078656  0.92135607  1
  C  C349  1  0.44628145  0.78261465  0.93214559  1
  C  C350  1  0.43139376  0.76056258  0.90602425  1
  C  C351  1  0.44412770  0.74492303  0.87186565  1
  C  C352  1  0.44715028  0.81462860  0.00025971  1
  C  C353  1  0.42788376  0.81938911  0.03829748  1
  C  C354  1  0.40853567  0.84056272  0.03618710  1
  C  C355  1  0.39006373  0.84453017  0.07126586  1
  C  C356  1  0.38915753  0.82621597  0.10659530  1
  C  C357  1  0.40795267  0.80437942  0.10730366  1
  C  C358  1  0.42783574  0.80125521  0.07389111  1
  C  C359  1  0.44879939  0.77900145  0.07373142  1
  C  C360  1  0.40829265  0.85966747  -0.00159067  1
  C  C361  1  0.36748592  0.83063601  0.14093754  1
  C  C362  1  0.36921437  0.86670125  0.06988123  1
  C  C363  1  0.32133507  0.86624540  0.05761046  1
  C  C364  1  0.32288662  0.89687866  0.06799115  1
  C  C365  1  0.29914098  0.91131630  0.07258882  1
  C  C366  1  0.27337849  0.89544691  0.06673479  1
  C  C367  1  0.27260522  0.86478575  0.05381960  1
  C  C368  1  0.29629954  0.85032095  0.04898681  1
  C  C369  1  0.24807605  0.90956795  0.07191189  1
  C  C370  1  0.24540915  0.93899499  0.07020567  1
  C  C371  1  0.40640290  0.78475891  0.14466538  1
  C  C372  1  0.42583377  0.78263867  0.21507911  1
  C  C373  1  0.41212123  0.75469829  0.21809522  1
  C  C374  1  0.41964591  0.73677473  0.24975895  1
  C  C375  1  0.44044757  0.74629975  0.28042129  1
  C  C376  1  0.45222430  0.77586506  0.27880720  1
  C  C377  1  0.44493928  0.79370552  0.24672807  1
  C  C378  1  0.44843581  0.72675563  0.31229600  1
  C  C379  1  0.46878203  0.73410737  0.34255860  1
  C  C380  1  0.71117324  0.54616518  0.75935370  1
  C  C381  1  0.73360594  0.53522377  0.77662772  1
  C  C382  1  0.74804321  0.54891139  0.81474803  1
  C  C383  1  0.76838627  0.53437381  0.83498741  1
  C  C384  1  0.78192190  0.54698263  0.87222644  1
  C  C385  1  0.77537436  0.57472594  0.89067606  1
  C  C386  1  0.75596736  0.59005002  0.87092144  1
  C  C387  1  0.74264110  0.57752497  0.83344536  1
  C  C388  1  0.80487301  0.57219547  0.95286679  1
  C  C389  1  0.81227463  0.59183888  0.99346353  1
  C  C390  1  0.83466177  0.61310747  0.99166499  1
  C  C391  1  0.84053844  0.63275537  0.02892003  1
  C  C392  1  0.82349501  0.63272539  0.06639979  1
  C  C393  1  0.80063178  0.61196398  0.06690516  1
  C  C394  1  0.79492407  0.59119818  0.03067124  1
  C  C395  1  0.77098224  0.56853441  0.02944960  1
  C  C396  1  0.85277698  0.61423515  0.95191430  1
  C  C397  1  0.83040701  0.65560386  0.10362126  1
  C  C398  1  0.86393090  0.65582074  0.02813155  1
  C  C399  1  0.87104403  0.70816647  0.02455436  1
  C  C400  1  0.89897494  0.70581533  0.02872498  1
  C  C401  1  0.91634770  0.73136402  0.03443299  1
  C  C402  1  0.90647211  0.75971871  0.03444019  1
  C  C403  1  0.87819004  0.76135041  0.02837970  1
  C  C404  1  0.86065648  0.73585983  0.02342246  1
  C  C405  1  0.92508703  0.78579973  0.04282857  1
  C  C406  1  0.95238186  0.78429704  0.04731501  1
  C  C407  1  0.78256870  0.61294848  0.10675502  1
  C  C408  1  0.77850889  0.59409888  0.17697554  1
  C  C409  1  0.75495714  0.60905895  0.18358502  1
  C  C410  1  0.73772664  0.60266773  0.21805160  1
  C  C411  1  0.74357064  0.58205491  0.24827891  1
  C  C412  1  0.76821962  0.56802794  0.24182505  1
  C  C413  1  0.78570977  0.57456621  0.20715894  1
  C  C414  1  0.72328082  0.57728257  0.28217848  1
  C  C415  1  0.71963541  0.55637203  0.31228872  1
  C  C416  1  0.02338518  0.11492095  0.11459375  1
  C  C417  1  0.03995166  0.08950981  0.09641641  1
  C  C418  1  0.03890659  0.14562994  0.11725182  1
  C  C419  1  0.01977645  0.16984492  0.13150963  1
  C  C420  1  0.03275807  0.19882523  0.15441485  1
  C  C421  1  0.86113086  0.06270142  0.08024359  1
  C  C422  1  0.87920429  0.03927237  0.09551708  1
  C  C423  1  0.83202693  0.04794313  0.07674560  1
  C  C424  1  0.80894352  0.06805623  0.07298155  1
  C  C425  1  0.78185007  0.04972285  0.06125434  1
  C  C426  1  0.14030512  0.93913197  0.07501390  1
  C  C427  1  0.12278739  0.96574898  0.07737579  1
  C  C428  1  0.16957080  0.95261866  0.06804459  1
  C  C429  1  0.19321992  0.93302734  0.06964833  1
  C  C430  1  0.21971742  0.95015794  0.05511121  1
  C  C431  1  0.97931690  0.88898100  0.06888647  1
  C  C432  1  0.96071677  0.91459157  0.07045116  1
  C  C433  1  0.96354710  0.85852023  0.06843662  1
  C  C434  1  0.98259604  0.83336604  0.06799007  1
  C  C435  1  0.96950630  0.80301575  0.08100838  1
  C  C436  1  0.41241041  0.45553604  0.73281759  1
  C  C437  1  0.39169267  0.46994343  0.75108597  1
  C  C438  1  0.36700039  0.45262863  0.76730337  1
  C  C439  1  0.30130348  0.46055082  0.83356814  1
  C  C440  1  0.32151086  0.45095559  0.80582418  1
  C  C441  1  0.34487205  0.47038932  0.79026941  1
  C  C442  1  0.50697844  0.40281360  0.70799062  1
  C  C443  1  0.52396673  0.38705945  0.72924005  1
  C  C444  1  0.51329925  0.35903237  0.74831525  1
  C  C445  1  0.54163987  0.30420325  0.82111703  1
  C  C446  1  0.52527451  0.31516620  0.79147985  1
  C  C447  1  0.53494953  0.34204061  0.76882565  1
  C  C448  1  0.51297542  0.42996306  0.48887948  1
  C  C449  1  0.52690264  0.40558309  0.48422532  1
  C  C450  1  0.51319372  0.37765082  0.46325574  1
  C  C451  1  0.52850590  0.29865645  0.42506216  1
  C  C452  1  0.51656301  0.32488467  0.43225123  1
  C  C453  1  0.53067416  0.35138411  0.45636361  1
  C  C454  1  0.47449347  0.59094210  0.44696974  1
  C  C455  1  0.47806098  0.62081155  0.44984733  1
  C  C456  1  0.47339814  0.63671725  0.40998582  1
  C  C457  1  0.47543219  0.71633524  0.37679030  1
  C  C458  1  0.47181092  0.68602613  0.37604793  1
  C  C459  1  0.47710219  0.67058847  0.41591778  1
  C  C460  1  0.49085846  0.57886594  0.66138736  1
  C  C461  1  0.47752877  0.59891204  0.68629600  1
  C  C462  1  0.49162982  0.62583880  0.71044885  1
  C  C463  1  0.46708352  0.70098663  0.75506332  1
  C  C464  1  0.48228110  0.67682574  0.75147324  1
  C  C465  1  0.47236739  0.65026429  0.72204267  1
  C  C466  1  0.59718914  0.53346876  0.46013983  1
  C  C467  1  0.60882172  0.53519110  0.42018666  1
  C  C468  1  0.63910520  0.54154345  0.41669723  1
  C  C469  1  0.69212657  0.54720716  0.32385816  1
  C  C470  1  0.68082003  0.54610997  0.36495318  1
  C  C471  1  0.65064023  0.54058329  0.36986699  1
  C  C472  1  0.43134289  0.48262620  0.48904001  1
  C  C473  1  0.40602283  0.47711289  0.50580728  1
  C  C474  1  0.38200992  0.48450560  0.47975042  1
  C  C475  1  0.30562861  0.46905993  0.45736707  1
  C  C476  1  0.33336885  0.47535229  0.45434164  1
  C  C477  1  0.35352628  0.46919492  0.48800502  1
  C  C478  1  0.57303378  0.51781834  0.67727410  1
  C  C479  1  0.59875114  0.51665069  0.66151416  1
  C  C480  1  0.62108180  0.52775683  0.69304024  1
  C  C481  1  0.69606558  0.53277864  0.72243074  1
  C  C482  1  0.66910236  0.53741378  0.71730866  1
  C  C483  1  0.65115166  0.52423302  0.68064629  1
  N  N484  1  0.96337979  0.02396164  0.07815219  1
  N  N485  1  0.03770908  0.97800122  0.08921046  1
  O  O486  1  0.02264947  0.04004429  0.07051961  1
  O  O487  1  0.02028210  0.05331485  0.14319697  1
  O  O488  1  0.97842507  0.96252978  0.10235469  1
  O  O489  1  0.98431809  0.95322596  0.03022341  1
  O  O490  1  0.52633172  0.51431683  0.68607171  1
  O  O491  1  0.54161434  0.50839572  0.61640983  1
  O  O492  1  0.53442861  0.47801023  0.48731772  1
  O  O493  1  0.54921884  0.52942547  0.44479805  1
  O  O494  1  0.51719497  0.46411822  0.55185168  1
  O  O495  1  0.56394341  0.54133970  0.51411200  1
  O  O496  1  0.51007703  0.45592210  0.71706495  1
  O  O497  1  0.51905397  0.43265745  0.65078261  1
  O  O498  1  0.47872320  0.48607653  0.48111818  1
  O  O499  1  0.46222084  0.48684875  0.55020557  1
  O  O500  1  0.47445832  0.53355067  0.68944947  1
  O  O501  1  0.48477784  0.53373797  0.61745172  1
  O  O502  1  0.45697399  0.47956634  0.72951277  1
  O  O503  1  0.43431524  0.46660197  0.66612201  1
  O  O504  1  0.49042071  0.54452194  0.45588938  1
  O  O505  1  0.49224481  0.57860112  0.51451184  1
  O  O506  1  0.51471497  0.53078639  0.53787936  1
  O  O507  1  0.48568110  0.47272190  0.63525904  1
  O  O508  1  0.23863286  0.38968885  0.23979031  1
  O  O509  1  0.22615270  0.38206478  0.02583602  1
  O  O510  1  0.14469548  0.32600721  0.14959566  1
  O  O511  1  0.57451577  0.20498471  -0.00432722  1
  O  O512  1  0.57570174  0.20648221  0.21081549  1
  O  O513  1  0.66018572  0.15291775  0.08165756  1
  O  O514  1  0.43245972  0.79544197  0.96645870  1
  O  O515  1  0.42073446  0.79995516  0.18235413  1
  O  O516  1  0.34375789  0.85063749  0.05511081  1
  O  O517  1  0.78773632  0.58876852  0.92685707  1
  O  O518  1  0.79487410  0.59846111  0.14162048  1
  O  O519  1  0.85288546  0.68398745  0.02163247  1
