# generated using pymatgen
data_Cu3H164C236(N9O8)2
_symmetry_space_group_name_H-M   'P 1'
_cell_length_a   60.40240888
_cell_length_b   62.38472065
_cell_length_c   32.27183329
_cell_angle_alpha   89.16591677
_cell_angle_beta   89.02792367
_cell_angle_gamma   83.58085694
_symmetry_Int_Tables_number   1
_chemical_formula_structural   Cu3H164C236(N9O8)2
_chemical_formula_sum   'Cu3 H164 C236 N18 O16'
_cell_volume   120816.71902362
_cell_formula_units_Z   1
loop_
 _symmetry_equiv_pos_site_id
 _symmetry_equiv_pos_as_xyz
  1  'x, y, z'
loop_
 _atom_site_type_symbol
 _atom_site_label
 _atom_site_symmetry_multiplicity
 _atom_site_fract_x
 _atom_site_fract_y
 _atom_site_fract_z
 _atom_site_occupancy
  Cu  Cu0  1  0.01953567  0.55528262  -0.00040519  1
  Cu  Cu1  1  0.53982711  0.02885415  0.00263624  1
  Cu  Cu2  1  0.52719053  0.53046135  0.49528394  1
  H  H3  1  0.97425647  0.57083500  0.97038449  1
  H  H4  1  0.00690546  0.51718324  0.87375027  1
  H  H5  1  0.06056644  0.55117700  0.93306023  1
  H  H6  1  0.05143293  0.61670454  0.88574022  1
  H  H7  1  0.02052069  0.62370599  0.93917690  1
  H  H8  1  0.06404681  0.53913101  0.02861687  1
  H  H9  1  0.97947628  0.55986295  0.06645781  1
  H  H10  1  0.08853180  0.54964774  0.08528428  1
  H  H11  1  0.01868953  0.48697062  0.06138965  1
  H  H12  1  0.03233695  0.59271019  0.12640880  1
  H  H13  1  0.98775392  0.49450579  0.11460741  1
  H  H14  1  0.95011364  0.55970974  0.91390080  1
  H  H15  1  0.49890007  0.01522299  0.97950487  1
  H  H16  1  0.55217462  0.98795921  0.87323799  1
  H  H17  1  0.57240988  0.04794379  0.93673948  1
  H  H18  1  0.52699520  0.09896378  0.88428387  1
  H  H19  1  0.49851840  0.08796131  0.93537963  1
  H  H20  1  0.58098128  0.04234306  0.02493630  1
  H  H21  1  0.50684808  0.00912817  0.06638591  1
  H  H22  1  0.59518697  0.06511291  0.07954697  1
  H  H23  1  0.58037988  0.96852202  0.06750492  1
  H  H24  1  0.52890352  0.07028700  0.13233424  1
  H  H25  1  0.55185641  0.95779367  0.11868505  1
  H  H26  1  0.48540869  0.99231870  0.92413583  1
  H  H27  1  0.50210820  0.57313491  0.52595687  1
  H  H28  1  0.54440728  0.55094241  0.42923632  1
  H  H29  1  0.55875027  0.58699466  0.42027051  1
  H  H30  1  0.54075291  0.61772399  0.46374510  1
  H  H31  1  0.51616838  0.44265132  0.54220571  1
  H  H32  1  0.48833970  0.47389260  0.56252868  1
  H  H33  1  0.49415557  0.51100512  0.53638693  1
  H  H34  1  0.55057858  0.48700464  0.46856871  1
  H  H35  1  0.12680185  0.63539172  0.24221781  1
  H  H36  1  0.12709448  0.58733574  0.26896539  1
  H  H37  1  0.14585109  0.57260202  0.32321117  1
  H  H38  1  0.17058430  0.57347463  0.38238726  1
  H  H39  1  0.17457758  0.64140004  0.36006556  1
  H  H40  1  0.15007580  0.64055792  0.29933549  1
  H  H41  1  0.19720420  0.57618152  0.41915724  1
  H  H42  1  0.17143004  0.58549982  0.44366560  1
  H  H43  1  0.15623119  0.61700392  0.53265564  1
  H  H44  1  0.15773634  0.59111959  0.51092372  1
  H  H45  1  0.15700187  0.61429352  0.47835763  1
  H  H46  1  0.22649710  0.58360595  0.40560890  1
  H  H47  1  0.24276607  0.56614631  0.43975677  1
  H  H48  1  0.25130255  0.59137624  0.42466951  1
  H  H49  1  0.22834933  0.62771414  0.59593726  1
  H  H50  1  0.24843656  0.63258730  0.55698698  1
  H  H51  1  0.25032963  0.60770380  0.58414659  1
  H  H52  1  0.26851300  0.59611703  0.53004994  1
  H  H53  1  0.26733304  0.58882436  0.47704328  1
  H  H54  1  0.29741893  0.58849465  0.49546135  1
  H  H55  1  0.33645273  0.59036274  0.49895753  1
  H  H56  1  0.32565115  0.66011120  0.48042912  1
  H  H57  1  0.28509432  0.65748692  0.47685404  1
  H  H58  1  0.36664675  0.63966954  0.48835156  1
  H  H59  1  0.36299561  0.59155898  0.51173619  1
  H  H60  1  0.19721493  0.63992324  0.58264459  1
  H  H61  1  0.17169725  0.63022384  0.57079932  1
  H  H62  1  0.17155146  0.65013988  0.62747725  1
  H  H63  1  0.14373987  0.65834867  0.68298303  1
  H  H64  1  0.15280998  0.59085674  0.72186441  1
  H  H65  1  0.18081116  0.58344293  0.66653199  1
  H  H66  1  0.12054104  0.64515645  0.74413210  1
  H  H67  1  0.13724433  0.59751804  0.76683875  1
  H  H68  1  0.59079240  0.14258216  0.25195450  1
  H  H69  1  0.63943439  0.12111288  0.25958693  1
  H  H70  1  0.66040462  0.13736624  0.31589992  1
  H  H71  1  0.66083736  0.16072423  0.37623481  1
  H  H72  1  0.59087756  0.18152927  0.36155710  1
  H  H73  1  0.58980035  0.15813216  0.30147422  1
  H  H74  1  0.65789808  0.18974598  0.41763787  1
  H  H75  1  0.64867242  0.16670301  0.44238624  1
  H  H76  1  0.61706389  0.15816868  0.53364929  1
  H  H77  1  0.64376547  0.15524019  0.51012076  1
  H  H78  1  0.61963494  0.15799081  0.47913935  1
  H  H79  1  0.64620922  0.21996958  0.40272273  1
  H  H80  1  0.66394404  0.23260696  0.43543656  1
  H  H81  1  0.63743350  0.24570100  0.42205233  1
  H  H82  1  0.60026682  0.23070277  0.59512954  1
  H  H83  1  0.59467456  0.25075211  0.55616942  1
  H  H84  1  0.62012139  0.24840401  0.58290605  1
  H  H85  1  0.63119729  0.26394037  0.52749730  1
  H  H86  1  0.63856757  0.26173077  0.47391396  1
  H  H87  1  0.63511191  0.29289357  0.49513844  1
  H  H88  1  0.62678234  0.33193868  0.50063159  1
  H  H89  1  0.55688086  0.32622187  0.48153809  1
  H  H90  1  0.56536644  0.28633200  0.47815765  1
  H  H91  1  0.56734322  0.36055417  0.48963555  1
  H  H92  1  0.61676531  0.36766218  0.50444671  1
  H  H93  1  0.59241629  0.20255815  0.58628437  1
  H  H94  1  0.60218721  0.17594237  0.57207632  1
  H  H95  1  0.58203918  0.18161984  0.62793314  1
  H  H96  1  0.57224674  0.15628402  0.68212272  1
  H  H97  1  0.64054361  0.14876835  0.72349277  1
  H  H98  1  0.65043523  0.17345525  0.66705237  1
  H  H99  1  0.57994658  0.13438257  0.73812381  1
  H  H100  1  0.62750463  0.12616513  0.77400307  1
  H  H101  1  0.90443251  0.50382374  0.74970414  1
  H  H102  1  0.92878548  0.45751087  0.74186328  1
  H  H103  1  0.91389934  0.43630480  0.68554166  1
  H  H104  1  0.89012810  0.43428039  0.62514021  1
  H  H105  1  0.86408083  0.50096116  0.64024764  1
  H  H106  1  0.88779382  0.50359369  0.70047173  1
  H  H107  1  0.86093224  0.43494925  0.58401503  1
  H  H108  1  0.88381122  0.44577752  0.55938514  1
  H  H109  1  0.89025869  0.47728557  0.46838799  1
  H  H110  1  0.89532269  0.45151850  0.49163120  1
  H  H111  1  0.89064477  0.47477026  0.52286495  1
  H  H112  1  0.82908986  0.44413991  0.59925159  1
  H  H113  1  0.81747037  0.42591083  0.56651215  1
  H  H114  1  0.80222355  0.45082673  0.57988593  1
  H  H115  1  0.81491731  0.48808627  0.40740821  1
  H  H116  1  0.79405567  0.49212908  0.44660621  1
  H  H117  1  0.79824178  0.46752069  0.41971598  1
  H  H118  1  0.78307344  0.45580899  0.47492884  1
  H  H119  1  0.78600356  0.44842780  0.52825173  1
  H  H120  1  0.75421073  0.44984059  0.50790444  1
  H  H121  1  0.71378835  0.45527207  0.50169558  1
  H  H122  1  0.71465733  0.52375366  0.52086958  1
  H  H123  1  0.75606755  0.51826810  0.52440727  1
  H  H124  1  0.67992685  0.51058302  0.51266052  1
  H  H125  1  0.67765881  0.46161948  0.49834821  1
  H  H126  1  0.84292021  0.49822910  0.41707605  1
  H  H127  1  0.87092646  0.49039455  0.43012115  1
  H  H128  1  0.86269573  0.50963561  0.37488478  1
  H  H129  1  0.88797243  0.52097182  0.32054795  1
  H  H130  1  0.90076251  0.45495143  0.27898038  1
  H  H131  1  0.87615805  0.44352826  0.33556644  1
  H  H132  1  0.91099835  0.51473397  0.26464464  1
  H  H133  1  0.92287587  0.46888317  0.22864475  1
  H  H134  1  0.45300679  0.92970271  0.75936411  1
  H  H135  1  0.50302365  0.92591102  0.73287644  1
  H  H136  1  0.51708386  0.90684292  0.67844615  1
  H  H137  1  0.51436526  0.88314260  0.61931280  1
  H  H138  1  0.44347522  0.88439949  0.64178387  1
  H  H139  1  0.44616445  0.90783693  0.70251497  1
  H  H140  1  0.50964480  0.85793852  0.58240633  1
  H  H141  1  0.50187932  0.88333091  0.55812698  1
  H  H142  1  0.47027334  0.90016178  0.46925580  1
  H  H143  1  0.49704741  0.89679038  0.49099654  1
  H  H144  1  0.47298906  0.89912970  0.52356684  1
  H  H145  1  0.49961298  0.83063560  0.59605456  1
  H  H146  1  0.51664328  0.81371367  0.56205046  1
  H  H147  1  0.48975328  0.80742845  0.57705015  1
  H  H148  1  0.45371917  0.83182383  0.40585483  1
  H  H149  1  0.44727872  0.81302276  0.44492586  1
  H  H150  1  0.47293279  0.80933101  0.41747724  1
  H  H151  1  0.48364904  0.79116425  0.47163117  1
  H  H152  1  0.49134559  0.79187334  0.52460557  1
  H  H153  1  0.48928135  0.76312776  0.50644562  1
  H  H154  1  0.48413949  0.72589848  0.50317281  1
  H  H155  1  0.41252806  0.74200598  0.52185116  1
  H  H156  1  0.41854288  0.78058708  0.52527117  1
  H  H157  1  0.43025979  0.70138108  0.51451543  1
  H  H158  1  0.48057851  0.70034975  0.49097256  1
  H  H159  1  0.44356399  0.86254089  0.41882794  1
  H  H160  1  0.45525805  0.88632482  0.43126660  1
  H  H161  1  0.43484234  0.88829221  0.37410900  1
  H  H162  1  0.42841774  0.91536544  0.31849814  1
  H  H163  1  0.49778465  0.90146475  0.27922270  1
  H  H164  1  0.50342762  0.87440409  0.33493623  1
  H  H165  1  0.44357150  0.93649816  0.25767697  1
  H  H166  1  0.49205332  0.91814613  0.23437721  1
  C  C167  1  0.05798345  0.55150416  0.05072180  1
  C  C168  1  0.07169463  0.55773496  0.08137420  1
  C  C169  1  0.06318470  0.57482654  0.10672089  1
  C  C170  1  0.04000443  0.58138418  0.10335012  1
  C  C171  1  0.98769814  0.54343286  0.06598660  1
  C  C172  1  0.98098763  0.52765412  0.09416840  1
  C  C173  1  0.99247461  0.50689311  0.09291210  1
  C  C174  1  0.00935067  0.50290377  0.06379366  1
  C  C175  1  0.98056505  0.55839011  0.94856966  1
  C  C176  1  0.96698433  0.55174451  0.91798441  1
  C  C177  1  0.97576679  0.53468584  0.89275972  1
  C  C178  1  0.99901449  0.52850390  0.89660073  1
  C  C179  1  0.05220999  0.56755416  0.93382304  1
  C  C180  1  0.05884887  0.58363231  0.90609756  1
  C  C181  1  0.04695097  0.60420381  0.90740958  1
  C  C182  1  0.03005508  0.60787642  0.93657595  1
  C  C183  1  0.56990837  0.04943842  0.04921556  1
  C  C184  1  0.57778963  0.06186601  0.07962299  1
  C  C185  1  0.56296737  0.07011973  0.11090540  1
  C  C186  1  0.54089126  0.06455303  0.10799363  1
  C  C187  1  0.52308763  -0.00043692  0.06740300  1
  C  C188  1  0.52633966  0.98221075  0.09650512  1
  C  C189  1  0.54788301  0.97106634  0.09660697  1
  C  C190  1  0.56364598  0.97715671  0.06838655  1
  C  C191  1  0.51018362  0.00826547  0.95542444  1
  C  C192  1  0.50272907  0.99579945  0.92473475  1
  C  C193  1  0.51809929  0.98774473  0.89414890  1
  C  C194  1  0.54002350  0.99355947  0.89737694  1
  C  C195  1  0.55614472  0.05745246  0.93591752  1
  C  C196  1  0.55263950  0.07478080  0.90685461  1
  C  C197  1  0.53102691  0.08574755  0.90647770  1
  C  C198  1  0.51533660  0.07951876  0.93462270  1
  C  C199  1  0.51540070  0.59826759  0.48842098  1
  C  C200  1  0.51337292  0.57661867  0.50065608  1
  C  C201  1  0.53815535  0.56452699  0.44867055  1
  C  C202  1  0.54545229  0.58486671  0.44267562  1
  C  C203  1  0.53472826  0.60187445  0.46475106  1
  C  C204  1  0.53717547  0.46306414  0.50796030  1
  C  C205  1  0.51821910  0.45910543  0.53214271  1
  C  C206  1  0.50263900  0.47617148  0.54257087  1
  C  C207  1  0.50583549  0.49697827  0.52820921  1
  C  C208  1  0.53768831  0.48409416  0.49138729  1
  C  C209  1  0.56808791  0.52313272  0.49837707  1
  C  C210  1  0.47136462  0.55247517  0.49248031  1
  C  C211  1  0.12337234  0.61857211  0.24229673  1
  C  C212  1  0.13184876  0.60359468  0.27212722  1
  C  C213  1  0.14603050  0.60629673  0.30636642  1
  C  C214  1  0.15215612  0.58769400  0.33114372  1
  C  C215  1  0.16577017  0.58827459  0.36485785  1
  C  C216  1  0.17342606  0.60776163  0.37549197  1
  C  C217  1  0.16812408  0.62645093  0.35147718  1
  C  C218  1  0.15444544  0.62584378  0.31740419  1
  C  C219  1  0.18825919  0.58973745  0.43619911  1
  C  C220  1  0.20073153  0.59528080  0.47331448  1
  C  C221  1  0.22416348  0.59340899  0.47030419  1
  C  C222  1  0.23577628  0.60132761  0.50322647  1
  C  C223  1  0.22455423  0.61158705  0.53759642  1
  C  C224  1  0.20104276  0.61387714  0.53897681  1
  C  C225  1  0.18887436  0.60537852  0.50734359  1
  C  C226  1  0.16384447  0.60707305  0.50743622  1
  C  C227  1  0.23667015  0.58321433  0.43347006  1
  C  C228  1  0.23841225  0.62036170  0.57025589  1
  C  C229  1  0.26046856  0.60055645  0.50024009  1
  C  C230  1  0.28861171  0.62306214  0.48755402  1
  C  C231  1  0.30331828  0.60435946  0.49304366  1
  C  C232  1  0.32594743  0.60559133  0.49483031  1
  C  C233  1  0.33501774  0.62550691  0.49072914  1
  C  C234  1  0.31957855  0.64435506  0.48396059  1
  C  C235  1  0.29676934  0.64306366  0.48209703  1
  C  C236  1  0.35879914  0.62487725  0.49274942  1
  C  C237  1  0.37164199  0.60532187  0.50135279  1
  C  C238  1  0.18951722  0.62521892  0.57532380  1
  C  C239  1  0.17704623  0.61600602  0.64269183  1
  C  C240  1  0.16699477  0.63718588  0.64784579  1
  C  C241  1  0.15156643  0.64181426  0.67965282  1
  C  C242  1  0.14576026  0.62540638  0.70766235  1
  C  C243  1  0.15682170  0.60423519  0.70204737  1
  C  C244  1  0.17256808  0.59977607  0.67065123  1
  C  C245  1  0.12930952  0.62904978  0.74003912  1
  C  C246  1  0.12524606  0.61219105  0.76699169  1
  C  C247  1  0.60464964  0.12984196  0.24687357  1
  C  C248  1  0.62414964  0.13093432  0.26898308  1
  C  C249  1  0.62501968  0.14522795  0.30337369  1
  C  C250  1  0.64492683  0.14675180  0.32573448  1
  C  C251  1  0.64523387  0.15985726  0.36010272  1
  C  C252  1  0.62561364  0.17203437  0.37348801  1
  C  C253  1  0.60598228  0.17162690  0.35136428  1
  C  C254  1  0.60558909  0.15837461  0.31722721  1
  C  C255  1  0.64372371  0.18375887  0.43439877  1
  C  C256  1  0.63650240  0.19730319  0.47136342  1
  C  C257  1  0.63661502  0.21987441  0.46797125  1
  C  C258  1  0.62785499  0.23277835  0.50118421  1
  C  C259  1  0.61801404  0.22381515  0.53651201  1
  C  C260  1  0.61773808  0.20124934  0.53873687  1
  C  C261  1  0.62703370  0.18777387  0.50657641  1
  C  C262  1  0.62680667  0.16371780  0.50755348  1
  C  C263  1  0.64642649  0.22997970  0.43033127  1
  C  C264  1  0.60776928  0.23897030  0.56921402  1
  C  C265  1  0.62708058  0.25673491  0.49798782  1
  C  C266  1  0.60055109  0.28724465  0.48773144  1
  C  C267  1  0.61785217  0.30006382  0.49318533  1
  C  C268  1  0.61314511  0.32225889  0.49553861  1
  C  C269  1  0.59098904  0.33229155  0.49154893  1
  C  C270  1  0.57393980  0.31874637  0.48489036  1
  C  C271  1  0.57859629  0.29655775  0.48295194  1
  C  C272  1  0.58498960  0.35508815  0.49354876  1
  C  C273  1  0.59884588  0.37124328  0.49970404  1
  C  C274  1  0.60742205  0.19203704  0.57653169  1
  C  C275  1  0.61720055  0.17801738  0.64274071  1
  C  C276  1  0.59502855  0.17386285  0.64788916  1
  C  C277  1  0.58939997  0.16004754  0.67915985  1
  C  C278  1  0.60535331  0.15048376  0.70758970  1
  C  C279  1  0.62762185  0.15574054  0.70256062  1
  C  C280  1  0.63333178  0.16958033  0.67086253  1
  C  C281  1  0.59763425  0.13643621  0.73916078  1
  C  C282  1  0.60961833  0.12526067  0.77082772  1
  C  C283  1  0.91786539  0.49073898  0.75520379  1
  C  C284  1  0.91781436  0.47180874  0.73272142  1
  C  C285  1  0.90336570  0.47017721  0.69825032  1
  C  C286  1  0.90323907  0.45070077  0.67577738  1
  C  C287  1  0.88994950  0.44951076  0.64141107  1
  C  C288  1  0.87620522  0.46778838  0.62820675  1
  C  C289  1  0.87520869  0.48694390  0.65040061  1
  C  C290  1  0.88864901  0.48822900  0.68454691  1
  C  C291  1  0.86598367  0.44919303  0.56733126  1
  C  C292  1  0.85171394  0.45511520  0.53045606  1
  C  C293  1  0.82866974  0.45332085  0.53398002  1
  C  C294  1  0.81484888  0.46088406  0.50093664  1
  C  C295  1  0.82324796  0.47133800  0.46591012  1
  C  C296  1  0.84622929  0.47350940  0.46392116  1
  C  C297  1  0.86077631  0.46527909  0.49559147  1
  C  C298  1  0.88533206  0.46735941  0.49443661  1
  C  C299  1  0.81895080  0.44314628  0.57163580  1
  C  C300  1  0.80702435  0.48021812  0.43337588  1
  C  C301  1  0.79032855  0.46005924  0.50443202  1
  C  C302  1  0.75755090  0.48391088  0.51522604  1
  C  C303  1  0.74568945  0.46615549  0.50969087  1
  C  C304  1  0.72272750  0.46920156  0.50700853  1
  C  C305  1  0.71092002  0.49006931  0.51097782  1
  C  C306  1  0.72351614  0.50765993  0.51767150  1
  C  C307  1  0.74651908  0.50467186  0.51975690  1
  C  C308  1  0.68722638  0.49392382  0.50871013  1
  C  C309  1  0.67228193  0.47881918  0.50202598  1
  C  C310  1  0.85473620  0.48429320  0.42627576  1
  C  C311  1  0.86905866  0.47564371  0.35978779  1
  C  C312  1  0.87159065  0.49757286  0.35478051  1
  C  C313  1  0.88532015  0.50401795  0.32360563  1
  C  C314  1  0.89628649  0.48903265  0.29529478  1
  C  C315  1  0.89259998  0.46696681  0.30005261  1
  C  C316  1  0.87882882  0.46045528  0.33167078  1
  C  C317  1  0.91006705  0.49737978  0.26384273  1
  C  C318  1  0.92215801  0.48636639  0.23202073  1
  C  C319  1  0.47073540  0.93170092  0.75936988  1
  C  C320  1  0.48580262  0.92251332  0.72960419  1
  C  C321  1  0.48204941  0.90914147  0.69536247  1
  C  C322  1  0.50094759  0.90190023  0.67055409  1
  C  C323  1  0.49934510  0.88887996  0.63686448  1
  C  C324  1  0.47852919  0.88300138  0.62626646  1
  C  C325  1  0.45948733  0.88946576  0.65031922  1
  C  C326  1  0.46111807  0.90253482  0.68438678  1
  C  C327  1  0.49622377  0.86752680  0.56546523  1
  C  C328  1  0.48957926  0.85601438  0.52829827  1
  C  C329  1  0.48979027  0.83346437  0.53129990  1
  C  C330  1  0.48080160  0.82293970  0.49828629  1
  C  C331  1  0.47091153  0.83436816  0.46395995  1
  C  C332  1  0.47028134  0.85703806  0.46255464  1
  C  C333  1  0.47996949  0.86804878  0.49426986  1
  C  C334  1  0.48001934  0.89212566  0.49440364  1
  C  C335  1  0.49934645  0.82080316  0.56822979  1
  C  C336  1  0.46069595  0.82169004  0.43147661  1
  C  C337  1  0.47970188  0.79929354  0.50139539  1
  C  C338  1  0.45404263  0.77433632  0.51444876  1
  C  C339  1  0.47232159  0.75876706  0.50896895  1
  C  C340  1  0.46921329  0.73724336  0.50736306  1
  C  C341  1  0.44773499  0.73027922  0.51170114  1
  C  C342  1  0.42937959  0.74656167  0.51828737  1
  C  C343  1  0.43257450  0.76824302  0.52002145  1
  C  C344  1  0.44633627  0.70756611  0.51029572  1
  C  C345  1  0.46559354  0.69348534  0.50244610  1
  C  C346  1  0.45931752  0.86894293  0.42631550  1
  C  C347  1  0.46989454  0.88049337  0.35896968  1
  C  C348  1  0.44865862  0.89166327  0.35372053  1
  C  C349  1  0.44503882  0.90671408  0.32180626  1
  C  C350  1  0.46252533  0.91107344  0.29373323  1
  C  C351  1  0.48363276  0.89882526  0.29933612  1
  C  C352  1  0.48708051  0.88351940  0.33090505  1
  C  C353  1  0.45980495  0.92715611  0.26135687  1
  C  C354  1  0.47736371  0.93031208  0.23406000  1
  C  C355  1  0.45032682  0.56662436  0.49680526  1
  C  C356  1  0.43275604  0.57840092  0.49908742  1
  C  C357  1  0.41331105  0.59115289  0.49998659  1
  C  C358  1  0.39446787  0.60102374  0.49946339  1
  C  C359  1  0.55445646  0.44652195  0.50043624  1
  C  C360  1  0.56747730  0.42986991  0.49944921  1
  C  C361  1  0.58045915  0.41106219  0.49983742  1
  C  C362  1  0.59007202  0.39248705  0.50005237  1
  C  C363  1  0.59055192  0.51232998  0.49866100  1
  C  C364  1  0.60935743  0.50286603  0.49892542  1
  C  C365  1  0.63003254  0.49246744  0.49916188  1
  C  C366  1  0.64986445  0.48533374  0.50020346  1
  C  C367  1  0.50002967  0.61566959  0.50038096  1
  C  C368  1  0.48835180  0.63308678  0.50404876  1
  C  C369  1  0.47677595  0.65256587  0.50592977  1
  C  C370  1  0.46778088  0.67143205  0.50613291  1
  C  C371  1  0.07638782  0.58168933  0.87651554  1
  C  C372  1  0.08637803  0.59179561  0.84986469  1
  C  C373  1  0.09724650  0.60245084  0.82156942  1
  C  C374  1  0.10791279  0.61188270  0.79493172  1
  C  C375  1  0.56922715  0.08118894  0.87984246  1
  C  C376  1  0.57986482  0.09068474  0.85381876  1
  C  C377  1  0.59035730  0.10193510  0.82558843  1
  C  C378  1  0.59939254  0.11284240  0.79936858  1
  C  C379  1  0.96344925  0.53029561  0.12386274  1
  C  C380  1  0.95327584  0.52027769  0.15037691  1
  C  C381  1  0.94296312  0.50856472  0.17791468  1
  C  C382  1  0.93341233  0.49771343  0.20343507  1
  C  C383  1  0.50946710  0.97636651  0.12355568  1
  C  C384  1  0.49753116  0.96830352  0.14952349  1
  C  C385  1  0.48647129  0.95800243  0.17841618  1
  C  C386  1  0.47831528  0.94684659  0.20564550  1
  C  C387  1  0.57013289  0.08251042  0.14301319  1
  C  C388  1  0.58043185  0.09261852  0.16728466  1
  C  C389  1  0.59167892  0.10357519  0.19351439  1
  C  C390  1  0.60082124  0.11453438  0.21840677  1
  C  C391  1  0.07545998  0.58483206  0.13571273  1
  C  C392  1  0.08657946  0.59419578  0.15970016  1
  C  C393  1  0.09865370  0.60436967  0.18576862  1
  C  C394  1  0.11019673  0.61211847  0.21166856  1
  C  C395  1  0.96408002  0.52425437  0.86338444  1
  C  C396  1  0.95432535  0.51422227  0.83818923  1
  C  C397  1  0.94374750  0.50333725  0.81079357  1
  C  C398  1  0.93299271  0.49472612  0.78468992  1
  C  C399  1  0.51163075  0.97513488  0.86195076  1
  C  C400  1  0.50072259  0.96499137  0.83883546  1
  C  C401  1  0.48856537  0.95415048  0.81415824  1
  C  C402  1  0.47829459  0.94387407  0.78994916  1
  N  N403  1  0.00098418  0.54810107  0.95395039  1
  N  N404  1  0.01162805  0.53579899  0.92522422  1
  N  N405  1  0.03552592  0.57290838  0.96005223  1
  N  N406  1  0.02499039  0.59250977  0.96312788  1
  N  N407  1  0.03778907  0.56232884  0.04549153  1
  N  N408  1  0.02722036  0.57432704  0.07473048  1
  N  N409  1  0.00406460  0.53768301  0.03933972  1
  N  N410  1  0.01486542  0.51816400  0.03738609  1
  N  N411  1  0.53172654  0.01123491  0.95703883  1
  N  N412  1  0.54653769  0.00548112  0.92757680  1
  N  N413  1  0.54001994  0.05299496  0.96183502  1
  N  N414  1  0.51972864  0.06328194  0.96185382  1
  N  N415  1  0.54833979  0.04654732  0.04819278  1
  N  N416  1  0.53387328  0.05276558  0.07799589  1
  N  N417  1  0.53944202  0.00432230  0.04229751  1
  N  N418  1  0.55942855  0.99339677  0.04108359  1
  N  N419  1  0.52503805  0.56025851  0.48123743  1
  N  N420  1  0.52314511  0.50068876  0.50333079  1
  O  O421  1  0.55752847  0.52168455  0.46410318  1
  O  O422  1  0.55922060  0.53212430  0.53003693  1
  O  O423  1  0.47937288  0.54506222  0.52625819  1
  O  O424  1  0.47792835  0.55117609  0.45551067  1
  O  O425  1  0.18622420  0.60892269  0.40928152  1
  O  O426  1  0.19153696  0.61057996  0.61089847  1
  O  O427  1  0.26629452  0.62184289  0.48782843  1
  O  O428  1  0.62461448  0.18511297  0.40696062  1
  O  O429  1  0.62332529  0.19026916  0.61024814  1
  O  O430  1  0.60445294  0.26539371  0.48723138  1
  O  O431  1  0.86289904  0.46777125  0.59470109  1
  O  O432  1  0.85717667  0.46886786  0.39254477  1
  O  O433  1  0.78014312  0.48148974  0.51595430  1
  O  O434  1  0.47642487  0.87084097  0.59242152  1
  O  O435  1  0.47444855  0.86621643  0.39073643  1
  O  O436  1  0.45711092  0.79556011  0.51397811  1
