# generated using pymatgen
data_Zn2H107C135(N2O7)2
_symmetry_space_group_name_H-M   'P 1'
_cell_length_a   78.35559434
_cell_length_b   78.55321869
_cell_length_c   32.78026657
_cell_angle_alpha   87.13524349
_cell_angle_beta   87.60596367
_cell_angle_gamma   94.47815418
_symmetry_Int_Tables_number   1
_chemical_formula_structural   Zn2H107C135(N2O7)2
_chemical_formula_sum   'Zn4 H214 C270 N8 O28'
_cell_volume   200686.49427351
_cell_formula_units_Z   2
loop_
 _symmetry_equiv_pos_site_id
 _symmetry_equiv_pos_as_xyz
  1  'x, y, z'
loop_
 _atom_site_type_symbol
 _atom_site_label
 _atom_site_symmetry_multiplicity
 _atom_site_fract_x
 _atom_site_fract_y
 _atom_site_fract_z
 _atom_site_occupancy
  Zn  Zn0  1  0.98345014  0.50415642  0.96962388  1
  Zn  Zn1  1  0.01725918  0.49682777  0.02651323  1
  Zn  Zn2  1  0.48444240  0.99684755  0.97112018  1
  Zn  Zn3  1  0.51603484  0.00525471  0.03228234  1
  H  H4  1  0.46046678  0.50153405  0.54355863  1
  H  H5  1  0.46725245  0.52323363  0.53276189  1
  H  H6  1  0.50259393  0.53543466  0.55803969  1
  H  H7  1  0.47453012  0.48096946  0.49333317  1
  H  H8  1  0.51304246  0.46516137  0.44483121  1
  H  H9  1  0.49057960  0.46445865  0.44578901  1
  H  H10  1  0.47942608  0.53192902  0.58737598  1
  H  H11  1  0.52644007  0.52006211  0.50197429  1
  H  H12  1  0.54236614  0.50151723  0.46191940  1
  H  H13  1  0.53487156  0.48025785  0.45481381  1
  H  H14  1  0.09990171  0.58492780  0.25690207  1
  H  H15  1  0.09863816  0.54585491  0.27848817  1
  H  H16  1  0.11310148  0.53469198  0.33098457  1
  H  H17  1  0.13276534  0.53691103  0.38714853  1
  H  H18  1  0.13773838  0.59185157  0.36746065  1
  H  H19  1  0.11834918  0.58973098  0.30982927  1
  H  H20  1  0.15370606  0.54173683  0.42375518  1
  H  H21  1  0.13428600  0.54583104  0.44963743  1
  H  H22  1  0.12406162  0.57001740  0.53561818  1
  H  H23  1  0.12378132  0.55019280  0.51279001  1
  H  H24  1  0.12512611  0.56936521  0.48168746  1
  H  H25  1  0.17710359  0.54716531  0.41331995  1
  H  H26  1  0.18791842  0.53505875  0.44954057  1
  H  H27  1  0.19664817  0.55560281  0.43103829  1
  H  H28  1  0.18010558  0.58303219  0.59705591  1
  H  H29  1  0.19671176  0.58839711  0.55873654  1
  H  H30  1  0.19541014  0.56843497  0.58630541  1
  H  H31  1  0.20854534  0.55829189  0.53695206  1
  H  H32  1  0.20787572  0.55230478  0.48553079  1
  H  H33  1  0.23260433  0.55337056  0.50029587  1
  H  H34  1  0.26385409  0.55817784  0.49888056  1
  H  H35  1  0.26029455  0.61264721  0.48141049  1
  H  H36  1  0.22863298  0.60763699  0.47871231  1
  H  H37  1  0.28881820  0.60080306  0.48549019  1
  H  H38  1  0.28861432  0.56448340  0.52416297  1
  H  H39  1  0.15779036  0.59301730  0.57998492  1
  H  H40  1  0.13730774  0.58459893  0.56681429  1
  H  H41  1  0.13439991  0.59968413  0.62320774  1
  H  H42  1  0.11279878  0.60317977  0.67785675  1
  H  H43  1  0.11625060  0.55047900  0.72109274  1
  H  H44  1  0.13901165  0.54779175  0.66832370  1
  H  H45  1  0.09291143  0.59017613  0.73672888  1
  H  H46  1  0.10503912  0.55601478  0.77168289  1
  H  H47  1  0.55980065  0.10966534  0.26011696  1
  H  H48  1  0.59459817  0.09439452  0.27357940  1
  H  H49  1  0.61172149  0.10859997  0.32715542  1
  H  H50  1  0.61393731  0.12759496  0.38416685  1
  H  H51  1  0.56208990  0.14068789  0.36761887  1
  H  H52  1  0.55941901  0.12127632  0.31143131  1
  H  H53  1  0.61341693  0.15396437  0.42178292  1
  H  H54  1  0.60482484  0.13480774  0.44820645  1
  H  H55  1  0.58038556  0.12477568  0.53998942  1
  H  H56  1  0.60049981  0.12578696  0.51352117  1
  H  H57  1  0.58151069  0.12453654  0.48600673  1
  H  H58  1  0.60445536  0.17698551  0.40320845  1
  H  H59  1  0.61877819  0.18826960  0.43462291  1
  H  H60  1  0.59945540  0.19686583  0.42078844  1
  H  H61  1  0.56842536  0.18091201  0.59336506  1
  H  H62  1  0.56533761  0.19645433  0.55411617  1
  H  H63  1  0.58487176  0.19685494  0.57926391  1
  H  H64  1  0.59548833  0.21034377  0.52366732  1
  H  H65  1  0.59929470  0.21015366  0.46983055  1
  H  H66  1  0.59826171  0.23604630  0.49649004  1
  H  H67  1  0.59268019  0.26621793  0.49950304  1
  H  H68  1  0.53891170  0.25279405  0.48356285  1
  H  H69  1  0.54452349  0.22224894  0.48234013  1
  H  H70  1  0.54657119  0.27993431  0.48651006  1
  H  H71  1  0.58301758  0.29561820  0.50154425  1
  H  H72  1  0.56273984  0.15815283  0.59071960  1
  H  H73  1  0.56628976  0.13780410  0.57336481  1
  H  H74  1  0.55292809  0.13971258  0.63295385  1
  H  H75  1  0.54404736  0.11746414  0.68654846  1
  H  H76  1  0.59699091  0.11452704  0.71713799  1
  H  H77  1  0.60588052  0.13587151  0.66050899  1
  H  H78  1  0.54938492  0.09886741  0.73988228  1
  H  H79  1  0.58641838  0.09463167  0.76689390  1
  H  H80  1  0.89316480  0.44091677  0.74023815  1
  H  H81  1  0.90834318  0.40610503  0.72815178  1
  H  H82  1  0.89412232  0.38895896  0.67475101  1
  H  H83  1  0.87509473  0.38659763  0.61748117  1
  H  H84  1  0.86174099  0.43826460  0.63253195  1
  H  H85  1  0.88114241  0.44105842  0.68906509  1
  H  H86  1  0.84834826  0.38709779  0.57881896  1
  H  H87  1  0.86744543  0.39578158  0.55247025  1
  H  H88  1  0.87744334  0.41996945  0.46054581  1
  H  H89  1  0.87628243  0.39985057  0.48714877  1
  H  H90  1  0.87785345  0.41874559  0.51449049  1
  H  H91  1  0.82527320  0.39600006  0.59716737  1
  H  H92  1  0.81414440  0.38190557  0.56509529  1
  H  H93  1  0.80523659  0.40089158  0.57954445  1
  H  H94  1  0.82124932  0.43242961  0.40664462  1
  H  H95  1  0.80557484  0.43554417  0.44530004  1
  H  H96  1  0.80532527  0.41597149  0.42086079  1
  H  H97  1  0.79160092  0.40616023  0.47758682  1
  H  H98  1  0.79179333  0.40298181  0.53161424  1
  H  H99  1  0.76625243  0.40315257  0.50354625  1
  H  H100  1  0.73586159  0.40770883  0.50014236  1
  H  H101  1  0.74724042  0.46171017  0.51394743  1
  H  H102  1  0.77810769  0.45712388  0.51676531  1
  H  H103  1  0.71759521  0.45083865  0.51028802  1
  H  H104  1  0.71051186  0.41435220  0.48240595  1
  H  H105  1  0.84414150  0.43774499  0.40896930  1
  H  H106  1  0.86446392  0.43416725  0.42713305  1
  H  H107  1  0.86273615  0.44751651  0.36722658  1
  H  H108  1  0.88480948  0.45635884  0.31339710  1
  H  H109  1  0.88755646  0.40355923  0.28362949  1
  H  H110  1  0.86632832  0.39468354  0.34034104  1
  H  H111  1  0.90333403  0.45096887  0.26004284  1
  H  H112  1  0.90727813  0.41396100  0.23377867  1
  H  H113  1  0.41689234  0.89964691  0.74155002  1
  H  H114  1  0.45607576  0.90138220  0.72052331  1
  H  H115  1  0.46734370  0.88701961  0.66817541  1
  H  H116  1  0.46512719  0.86729253  0.61253007  1
  H  H117  1  0.41008326  0.86206110  0.63186907  1
  H  H118  1  0.41222666  0.88145287  0.68906692  1
  H  H119  1  0.46021830  0.84582429  0.57712223  1
  H  H120  1  0.45625958  0.86514151  0.55035697  1
  H  H121  1  0.43205187  0.87550380  0.46419181  1
  H  H122  1  0.45191583  0.87564036  0.48736887  1
  H  H123  1  0.43270943  0.87439873  0.51813871  1
  H  H124  1  0.45480697  0.82240179  0.58748730  1
  H  H125  1  0.46697127  0.81182138  0.55136997  1
  H  H126  1  0.44650911  0.80284457  0.56990906  1
  H  H127  1  0.41864102  0.81963085  0.40332037  1
  H  H128  1  0.41368865  0.80280988  0.44143061  1
  H  H129  1  0.43363333  0.80463512  0.41388444  1
  H  H130  1  0.44381018  0.79135612  0.46373841  1
  H  H131  1  0.44947245  0.79169107  0.51557073  1
  H  H132  1  0.44885771  0.76710032  0.49906379  1
  H  H133  1  0.44450748  0.73590914  0.49984327  1
  H  H134  1  0.38991883  0.73849181  0.51923779  1
  H  H135  1  0.39444851  0.77007836  0.52159518  1
  H  H136  1  0.40273272  0.71001653  0.51645448  1
  H  H137  1  0.43725648  0.71136090  0.46909062  1
  H  H138  1  0.40908251  0.84201716  0.41911447  1
  H  H139  1  0.41728921  0.86235967  0.43324304  1
  H  H140  1  0.40254000  0.86588576  0.37695383  1
  H  H141  1  0.39901216  0.88761878  0.32229916  1
  H  H142  1  0.45168945  0.88397835  0.27918557  1
  H  H143  1  0.45441210  0.86115281  0.33209589  1
  H  H144  1  0.41208115  0.90760850  0.26333332  1
  H  H145  1  0.44608721  0.89521331  0.22869922  1
  H  H146  1  0.42137705  0.49507360  0.50630656  1
  H  H147  1  0.33717413  0.59392822  0.49075286  1
  H  H148  1  0.42453168  0.55761846  0.51730774  1
  H  H149  1  0.44815288  0.54504490  0.47840067  1
  H  H150  1  0.38657829  0.55286590  0.50203156  1
  H  H151  1  0.37540078  0.53396505  0.52378408  1
  H  H152  1  0.34368151  0.53567370  0.54800406  1
  H  H153  1  0.31620118  0.54157071  0.51754316  1
  H  H154  1  0.39790058  0.50959772  0.53928048  1
  H  H155  1  0.45178362  0.49801487  0.47200479  1
  H  H156  1  0.46117170  0.51870227  0.45658806  1
  H  H157  1  0.36435631  0.58589831  0.51955153  1
  H  H158  1  0.37743705  0.56915638  0.56193937  1
  H  H159  1  0.36657286  0.55021863  0.58563577  1
  H  H160  1  0.31202836  0.58321706  0.45414401  1
  H  H161  1  0.30556779  0.56107697  0.45628012  1
  H  H162  1  0.39425383  0.53386593  0.58320613  1
  H  H163  1  0.40436902  0.55417450  0.56609475  1
  H  H164  1  0.51717765  0.43472920  0.43942684  1
  H  H165  1  0.56626743  0.32715113  0.57139410  1
  H  H166  1  0.54169800  0.42508114  0.57405846  1
  H  H167  1  0.51808182  0.44409221  0.56927914  1
  H  H168  1  0.54322454  0.38503427  0.52858967  1
  H  H169  1  0.54975173  0.38911269  0.47652191  1
  H  H170  1  0.57094130  0.36571174  0.44728734  1
  H  H171  1  0.57116379  0.33447273  0.43931416  1
  H  H172  1  0.54095500  0.41632896  0.44907264  1
  H  H173  1  0.48884566  0.44312770  0.49225851  1
  H  H174  1  0.49664745  0.45707999  0.52888992  1
  H  H175  1  0.56500648  0.35852401  0.57473301  1
  H  H176  1  0.57443719  0.38403094  0.54629671  1
  H  H177  1  0.58059404  0.38716555  0.49337544  1
  H  H178  1  0.54957591  0.30680684  0.52771527  1
  H  H179  1  0.55044549  0.31011410  0.47397467  1
  H  H180  1  0.56710605  0.41582186  0.49326636  1
  H  H181  1  0.56174188  0.41155343  0.54630394  1
  H  H182  1  0.55728747  0.45622759  0.48810300  1
  H  H183  1  0.68490205  0.45920955  0.53314673  1
  H  H184  1  0.59993041  0.50580765  0.49063459  1
  H  H185  1  0.57080364  0.50848046  0.52040964  1
  H  H186  1  0.62334787  0.46867910  0.50577350  1
  H  H187  1  0.61582527  0.45364569  0.47104465  1
  H  H188  1  0.64319489  0.43527615  0.43834874  1
  H  H189  1  0.66566294  0.41716170  0.46231601  1
  H  H190  1  0.58676500  0.45567915  0.45808872  1
  H  H191  1  0.53604832  0.47277818  0.53010999  1
  H  H192  1  0.54157355  0.49442155  0.53979110  1
  H  H193  1  0.66162669  0.47574841  0.50707241  1
  H  H194  1  0.64606966  0.48078540  0.45130511  1
  H  H195  1  0.63902591  0.46424447  0.41927739  1
  H  H196  1  0.69122455  0.42850456  0.55278916  1
  H  H197  1  0.68431890  0.41167619  0.52200692  1
  H  H198  1  0.60952657  0.47739452  0.42115261  1
  H  H199  1  0.61804996  0.49282539  0.45432488  1
  H  H200  1  0.50501451  0.57959714  0.45454438  1
  H  H201  1  0.41217402  0.66298327  0.53988258  1
  H  H202  1  0.44801692  0.57387977  0.52481361  1
  H  H203  1  0.46777251  0.55183894  0.54107025  1
  H  H204  1  0.44987697  0.61347305  0.51167956  1
  H  H205  1  0.46358049  0.62115647  0.46946110  1
  H  H206  1  0.45624463  0.65163418  0.43520397  1
  H  H207  1  0.45459641  0.68137262  0.45567427  1
  H  H208  1  0.48257086  0.59886459  0.43695577  1
  H  H209  1  0.51215601  0.55285245  0.48259266  1
  H  H210  1  0.47493849  0.53863149  0.59814470  1
  H  H211  1  0.41603692  0.63368370  0.51839626  1
  H  H212  1  0.42410074  0.61735039  0.46916436  1
  H  H213  1  0.43793341  0.62554358  0.42709543  1
  H  H214  1  0.42580262  0.69054773  0.54971738  1
  H  H215  1  0.44712247  0.69561879  0.53020983  1
  H  H216  1  0.45180922  0.59695136  0.42821043  1
  H  H217  1  0.43793279  0.58919937  0.47053350  1
  C  C218  1  0.98330660  0.48758164  0.04482483  1
  C  C219  1  0.01748466  0.51422891  0.95204972  1
  C  C220  1  0.96822371  0.48801104  0.92114417  1
  C  C221  1  0.03206656  0.51248602  0.07639383  1
  C  C222  1  0.48817288  0.98381944  0.04973873  1
  C  C223  1  0.51218307  0.01821482  0.95379059  1
  C  C224  1  0.47821101  0.97489527  0.92544536  1
  C  C225  1  0.52313828  0.02731596  0.07715952  1
  C  C226  1  0.50167564  0.48437791  0.48010040  1
  C  C227  1  0.53447257  0.49045663  0.47658597  1
  C  C228  1  0.49840260  0.53495995  0.52629117  1
  C  C229  1  0.46637406  0.51072426  0.51926634  1
  C  C230  1  0.48595438  0.48983217  0.49371415  1
  C  C231  1  0.48422782  0.50608574  0.50852979  1
  C  C232  1  0.51650221  0.49549503  0.48394173  1
  C  C233  1  0.49890267  0.51759225  0.51083833  1
  C  C234  1  0.50172574  0.46648107  0.46511292  1
  C  C235  1  0.51483744  0.51162251  0.49927985  1
  C  C236  1  0.09661338  0.57120256  0.25555958  1
  C  C237  1  0.10287992  0.55918267  0.28282101  1
  C  C238  1  0.11414355  0.56188879  0.31563195  1
  C  C239  1  0.11850665  0.54724860  0.33884377  1
  C  C240  1  0.12930407  0.54852296  0.37101244  1
  C  C241  1  0.13590056  0.56465192  0.38174839  1
  C  C242  1  0.13219745  0.57940110  0.35911593  1
  C  C243  1  0.12136753  0.57811519  0.32667969  1
  C  C244  1  0.14737900  0.55132805  0.44092558  1
  C  C245  1  0.15733322  0.55672905  0.47683438  1
  C  C246  1  0.17524982  0.55587487  0.47531122  1
  C  C247  1  0.18453845  0.56220488  0.50805951  1
  C  C248  1  0.17649836  0.57050854  0.54009791  1
  C  C249  1  0.15860692  0.57177923  0.54024391  1
  C  C250  1  0.14880743  0.56410322  0.50984328  1
  C  C251  1  0.12958526  0.56348120  0.51013409  1
  C  C252  1  0.18459348  0.54809520  0.44069178  1
  C  C253  1  0.18759580  0.57798908  0.57209361  1
  C  C254  1  0.20359268  0.56163112  0.50682696  1
  C  C255  1  0.22865028  0.58042368  0.49159376  1
  C  C256  1  0.23849491  0.56643461  0.49674315  1
  C  C257  1  0.25619625  0.56915439  0.49661110  1
  C  C258  1  0.26443587  0.58583003  0.49284440  1
  C  C259  1  0.25418672  0.59969782  0.48571046  1
  C  C260  1  0.23649494  0.59698725  0.48450272  1
  C  C261  1  0.28292027  0.58794363  0.49360919  1
  C  C262  1  0.29271671  0.57463667  0.50089237  1
  C  C263  1  0.15019213  0.58105519  0.57382102  1
  C  C264  1  0.13732219  0.57307722  0.64108559  1
  C  C265  1  0.13024628  0.58883497  0.64433200  1
  C  C266  1  0.11821858  0.59085984  0.67565232  1
  C  C267  1  0.11275422  0.57723664  0.70471867  1
  C  C268  1  0.12048541  0.56157616  0.70089272  1
  C  C269  1  0.13298007  0.55979158  0.67046219  1
  C  C270  1  0.09969465  0.57857619  0.73602527  1
  C  C271  1  0.09570145  0.56554350  0.76625028  1
  C  C272  1  0.56932637  0.10015555  0.25805133  1
  C  C273  1  0.58387644  0.10190465  0.28116281  1
  C  C274  1  0.58547087  0.11330121  0.31390025  1
  C  C275  1  0.60070227  0.11549995  0.33595250  1
  C  C276  1  0.60197043  0.12622356  0.36831677  1
  C  C277  1  0.58797713  0.13529822  0.37977582  1
  C  C278  1  0.57288913  0.13354814  0.35848867  1
  C  C279  1  0.57154501  0.12266570  0.32649717  1
  C  C280  1  0.60182895  0.14777997  0.43824442  1
  C  C281  1  0.59584214  0.15803006  0.47299815  1
  C  C282  1  0.59643889  0.17605874  0.46754135  1
  C  C283  1  0.58984449  0.18555613  0.49920677  1
  C  C284  1  0.58190629  0.17722983  0.53525327  1
  C  C285  1  0.58091169  0.15920550  0.53946181  1
  C  C286  1  0.58808314  0.14946388  0.50889175  1
  C  C287  1  0.58752819  0.13027938  0.51242826  1
  C  C288  1  0.60508832  0.18495299  0.42971970  1
  C  C289  1  0.57476227  0.18826273  0.56700824  1
  C  C290  1  0.59080227  0.20476336  0.49557764  1
  C  C291  1  0.57162723  0.22719878  0.48987914  1
  C  C292  1  0.58514349  0.23959934  0.49434551  1
  C  C293  1  0.58197583  0.25681200  0.49540541  1
  C  C294  1  0.56527409  0.26203717  0.49123557  1
  C  C295  1  0.55192653  0.24911399  0.48652590  1
  C  C296  1  0.55497851  0.23198741  0.48592427  1
  C  C297  1  0.56028558  0.27959475  0.49128236  1
  C  C298  1  0.56925449  0.29467843  0.49732077  1
  C  C299  1  0.57263363  0.15052840  0.57791061  1
  C  C300  1  0.58011421  0.13794058  0.64115289  1
  C  C301  1  0.56264628  0.13354100  0.64984376  1
  C  C302  1  0.55761011  0.12151224  0.68105165  1
  C  C303  1  0.56967158  0.11413780  0.70623367  1
  C  C304  1  0.58728608  0.11972851  0.69832746  1
  C  C305  1  0.59237116  0.13164028  0.66646207  1
  C  C306  1  0.56325337  0.10177043  0.73791139  1
  C  C307  1  0.57243171  0.09299522  0.76666971  1
  C  C308  1  0.90260210  0.43132568  0.74310337  1
  C  C309  1  0.90081627  0.41680230  0.72022943  1
  C  C310  1  0.88935012  0.41514944  0.68731424  1
  C  C311  1  0.88717204  0.39992554  0.66557435  1
  C  C312  1  0.87639342  0.39855760  0.63307275  1
  C  C313  1  0.86720354  0.41244406  0.62109229  1
  C  C314  1  0.86894083  0.42752594  0.64204166  1
  C  C315  1  0.87985764  0.42895398  0.67420343  1
  C  C316  1  0.85447538  0.39874030  0.56245717  1
  C  C317  1  0.84411977  0.40489538  0.52765794  1
  C  C318  1  0.82605333  0.40456874  0.53308659  1
  C  C319  1  0.81649608  0.41174127  0.50184235  1
  C  C320  1  0.82488908  0.41916755  0.46530894  1
  C  C321  1  0.84293852  0.41975218  0.46088645  1
  C  C322  1  0.85270808  0.41252726  0.49167561  1
  C  C323  1  0.87192776  0.41284769  0.48814952  1
  C  C324  1  0.81725822  0.39553280  0.57055151  1
  C  C325  1  0.81385589  0.42615511  0.43299372  1
  C  C326  1  0.79721035  0.41118888  0.50534853  1
  C  C327  1  0.77431611  0.42997864  0.50914899  1
  C  C328  1  0.76231739  0.41612995  0.50487234  1
  C  C329  1  0.74497001  0.41872900  0.50326844  1
  C  C330  1  0.73895322  0.43515958  0.50605590  1
  C  C331  1  0.75140764  0.44889237  0.51108353  1
  C  C332  1  0.76876671  0.44638163  0.51258284  1
  C  C333  1  0.72070732  0.43772326  0.50569608  1
  C  C334  1  0.70806400  0.42520530  0.50078782  1
  C  C335  1  0.85171139  0.42785918  0.42231111  1
  C  C336  1  0.86435587  0.42038304  0.35939948  1
  C  C337  1  0.86880748  0.43780526  0.35044812  1
  C  C338  1  0.88075815  0.44282632  0.31912315  1
  C  C339  1  0.88804677  0.43079613  0.29412847  1
  C  C340  1  0.88242306  0.41323317  0.30231540  1
  C  C341  1  0.87057921  0.40816315  0.33425451  1
  C  C342  1  0.90037074  0.43713709  0.26235564  1
  C  C343  1  0.90905972  0.42790678  0.23389631  1
  C  C344  1  0.43063159  0.90302441  0.74308311  1
  C  C345  1  0.44275752  0.89698038  0.71606652  1
  C  C346  1  0.44010857  0.88576137  0.68341079  1
  C  C347  1  0.45477274  0.88151933  0.66036680  1
  C  C348  1  0.45349411  0.87068832  0.62849249  1
  C  C349  1  0.43733760  0.86395939  0.61786133  1
  C  C350  1  0.42256103  0.86764715  0.64018888  1
  C  C351  1  0.42385234  0.87847833  0.67237682  1
  C  C352  1  0.45064882  0.85213727  0.55948632  1
  C  C353  1  0.44514596  0.84215546  0.52376511  1
  C  C354  1  0.44590217  0.82425773  0.52551554  1
  C  C355  1  0.43947415  0.81501993  0.49282939  1
  C  C356  1  0.43130487  0.82316164  0.46037452  1
  C  C357  1  0.43012612  0.84103233  0.45998437  1
  C  C358  1  0.43783004  0.85073772  0.49044982  1
  C  C359  1  0.43857065  0.86992615  0.48987918  1
  C  C360  1  0.45387554  0.81495740  0.56019423  1
  C  C361  1  0.42391904  0.81215351  0.42819692  1
  C  C362  1  0.44019461  0.79599948  0.49386875  1
  C  C363  1  0.42169438  0.77060961  0.50814719  1
  C  C364  1  0.43584764  0.76103055  0.50270792  1
  C  C365  1  0.43338239  0.74335096  0.50257120  1
  C  C366  1  0.41681924  0.73480466  0.50672087  1
  C  C367  1  0.40280606  0.74477188  0.51456632  1
  C  C368  1  0.40524808  0.76245528  0.51560645  1
  C  C369  1  0.41515162  0.71634599  0.50579039  1
  C  C370  1  0.42854829  0.70713445  0.49523367  1
  C  C371  1  0.42097280  0.84960136  0.42605952  1
  C  C372  1  0.42914886  0.86289108  0.35924344  1
  C  C373  1  0.41338311  0.87003397  0.35587504  1
  C  C374  1  0.41134004  0.88214501  0.32452614  1
  C  C375  1  0.42494908  0.88760730  0.29548669  1
  C  C376  1  0.44060112  0.87978023  0.29938332  1
  C  C377  1  0.44241284  0.86724250  0.32990941  1
  C  C378  1  0.42365106  0.90074731  0.26412142  1
  C  C379  1  0.43668859  0.90466207  0.23396791  1
  C  C380  1  0.42300791  0.50892858  0.50858492  1
  C  C381  1  0.33813229  0.58068173  0.50160689  1
  C  C382  1  0.43798647  0.51870339  0.49334117  1
  C  C383  1  0.32449920  0.56816344  0.49864005  1
  C  C384  1  0.42463718  0.54387614  0.51363302  1
  C  C385  1  0.43788495  0.53657987  0.49373065  1
  C  C386  1  0.38238953  0.54601170  0.53127368  1
  C  C387  1  0.34164435  0.54829423  0.53433115  1
  C  C388  1  0.32644485  0.55186171  0.51683021  1
  C  C389  1  0.40966360  0.51676215  0.52691472  1
  C  C390  1  0.45453773  0.51100097  0.48246505  1
  C  C391  1  0.35325228  0.57659766  0.51857925  1
  C  C392  1  0.37065260  0.55679969  0.55598637  1
  C  C393  1  0.30863380  0.57208477  0.47564486  1
  C  C394  1  0.39801822  0.54222890  0.55586516  1
  C  C395  1  0.52202874  0.43317436  0.47005528  1
  C  C396  1  0.56713420  0.33506942  0.54292295  1
  C  C397  1  0.51498804  0.44110394  0.50388405  1
  C  C398  1  0.56685164  0.32774750  0.50464719  1
  C  C399  1  0.53571452  0.42763944  0.54504444  1
  C  C400  1  0.52234834  0.43804875  0.54174020  1
  C  C401  1  0.55376029  0.39081366  0.50789681  1
  C  C402  1  0.57006644  0.35659658  0.47376288  1
  C  C403  1  0.56987524  0.33911032  0.47006847  1
  C  C404  1  0.53528537  0.42268678  0.47464254  1
  C  C405  1  0.50000749  0.45190298  0.49927091  1
  C  C406  1  0.56687558  0.35255074  0.54560383  1
  C  C407  1  0.57021593  0.38192889  0.51520740  1
  C  C408  1  0.55868568  0.30965908  0.50079287  1
  C  C409  1  0.55714300  0.40987928  0.51538508  1
  C  C410  1  0.56624970  0.46748033  0.48999654  1
  C  C411  1  0.67607227  0.45321817  0.51220210  1
  C  C412  1  0.56129355  0.48241201  0.50771524  1
  C  C413  1  0.67739177  0.43632983  0.50088520  1
  C  C414  1  0.59004084  0.49515001  0.49126843  1
  C  C415  1  0.57370990  0.49634906  0.50787268  1
  C  C416  1  0.62222354  0.46651946  0.47304607  1
  C  C417  1  0.65289776  0.44001874  0.45895424  1
  C  C418  1  0.66545721  0.43005585  0.47323957  1
  C  C419  1  0.58268313  0.46680766  0.47343964  1
  C  C420  1  0.54270089  0.48475635  0.51682459  1
  C  C421  1  0.66330453  0.46280412  0.49758601  1
  C  C422  1  0.64004632  0.46763942  0.45131671  1
  C  C423  1  0.69020083  0.42494953  0.52051810  1
  C  C424  1  0.61150405  0.47995368  0.45343650  1
  C  C425  1  0.49223684  0.57704879  0.46919765  1
  C  C426  1  0.42252231  0.66112343  0.51759234  1
  C  C427  1  0.48836082  0.56257781  0.49682139  1
  C  C428  1  0.43390076  0.67486461  0.50225401  1
  C  C429  1  0.46036276  0.57360270  0.50811456  1
  C  C430  1  0.47190773  0.56177009  0.51744892  1
  C  C431  1  0.45107843  0.61429977  0.47806202  1
  C  C432  1  0.44682587  0.65482388  0.45858639  1
  C  C433  1  0.44579271  0.67135314  0.47095538  1
  C  C434  1  0.48004234  0.58812054  0.45946435  1
  C  C435  1  0.50030591  0.54966132  0.50143226  1
  C  C436  1  0.42414686  0.64472937  0.50522956  1
  C  C437  1  0.43663365  0.62419638  0.46069619  1
  C  C438  1  0.43378932  0.69223940  0.52105825  1
  C  C439  1  0.45034786  0.59625865  0.46185865  1
  C  C440  1  0.02916388  0.52393768  0.92275617  1
  C  C441  1  0.03887914  0.53233989  0.89778070  1
  C  C442  1  0.04942838  0.54148122  0.87062967  1
  C  C443  1  0.05906445  0.54995933  0.84507165  1
  C  C444  1  0.07001764  0.55802510  0.81734781  1
  C  C445  1  0.08127504  0.56395161  0.79154317  1
  C  C446  1  0.52172653  0.03034761  0.92531032  1
  C  C447  1  0.52984615  0.04039475  0.90058700  1
  C  C448  1  0.53869747  0.05133111  0.87365565  1
  C  C449  1  0.54708897  0.06121581  0.84849977  1
  C  C450  1  0.55608934  0.07183745  0.82146899  1
  C  C451  1  0.56399325  0.08184631  0.79560608  1
  C  C452  1  0.97157419  0.47845421  0.07492697  1
  C  C453  1  0.96159215  0.47040432  0.09991189  1
  C  C454  1  0.95074377  0.46162515  0.12709105  1
  C  C455  1  0.94088926  0.45316723  0.15217219  1
  C  C456  1  0.93029725  0.44410674  0.17912978  1
  C  C457  1  0.92026373  0.43624640  0.20498186  1
  C  C458  1  0.47838460  0.97168782  0.07782635  1
  C  C459  1  0.47004768  0.96177558  0.10249341  1
  C  C460  1  0.46096821  0.95100117  0.12935494  1
  C  C461  1  0.45259937  0.94128294  0.15495800  1
  C  C462  1  0.44452700  0.93030762  0.18268877  1
  C  C463  1  0.43847059  0.91910712  0.20855989  1
  C  C464  1  0.53015480  0.03895495  0.10575329  1
  C  C465  1  0.53678799  0.04832365  0.13019538  1
  C  C466  1  0.54421791  0.05852427  0.15677829  1
  C  C467  1  0.55189949  0.06770174  0.18064556  1
  C  C468  1  0.55969678  0.07776067  0.20666962  1
  C  C469  1  0.56616252  0.08762530  0.23116802  1
  C  C470  1  0.04149541  0.52289672  0.10395132  1
  C  C471  1  0.04956528  0.53195844  0.12675073  1
  C  C472  1  0.05840191  0.54187153  0.15169404  1
  C  C473  1  0.06710693  0.55046750  0.17488233  1
  C  C474  1  0.07661933  0.55937567  0.20025109  1
  C  C475  1  0.08598222  0.56589047  0.22583306  1
  C  C476  1  0.95890622  0.47749957  0.89355126  1
  C  C477  1  0.95100954  0.46838356  0.87052976  1
  C  C478  1  0.94237111  0.45841525  0.84534175  1
  C  C479  1  0.93402087  0.44974810  0.82157873  1
  C  C480  1  0.92462857  0.44114393  0.79549119  1
  C  C481  1  0.91504009  0.43444660  0.77055181  1
  C  C482  1  0.47163200  0.96301297  0.89689906  1
  C  C483  1  0.46534147  0.95337163  0.87258392  1
  C  C484  1  0.45816172  0.94286712  0.84628555  1
  C  C485  1  0.45044417  0.93344451  0.82301302  1
  C  C486  1  0.44226529  0.92328462  0.79777451  1
  C  C487  1  0.43588814  0.91368239  0.77263980  1
  N  N488  1  0.41098895  0.53401179  0.53185601  1
  N  N489  1  0.35505543  0.56054194  0.53490131  1
  N  N490  1  0.54198446  0.41971702  0.51205208  1
  N  N491  1  0.56833997  0.36331183  0.51133029  1
  N  N492  1  0.59456339  0.48054122  0.47412973  1
  N  N493  1  0.65197509  0.45643283  0.47046832  1
  N  N494  1  0.46383669  0.58595866  0.47718649  1
  N  N495  1  0.43616281  0.64151132  0.47583709  1
  O  O496  1  0.96002517  0.49605714  0.94786041  1
  O  O497  1  0.98462822  0.48907173  0.91951738  1
  O  O498  1  0.02203277  0.50001123  0.96705662  1
  O  O499  1  0.00343168  0.52078320  0.96140020  1
  O  O500  1  0.01571294  0.51176114  0.07739725  1
  O  O501  1  0.04030303  0.50425527  0.05000123  1
  O  O502  1  0.97906069  0.50183044  0.02930445  1
  O  O503  1  0.99705161  0.48053745  0.03514145  1
  O  O504  1  0.47010715  0.97516125  0.96045433  1
  O  O505  1  0.49095116  0.98560799  0.91576133  1
  O  O506  1  0.52028100  0.00663066  0.97163648  1
  O  O507  1  0.49605048  0.01969535  0.95933626  1
  O  O508  1  0.51027747  0.01677149  0.08732491  1
  O  O509  1  0.53090807  0.02696973  0.04183961  1
  O  O510  1  0.48015373  0.99541816  0.03167131  1
  O  O511  1  0.50433298  0.98240845  0.04483151  1
  O  O512  1  0.14618079  0.56652068  0.41386101  1
  O  O513  1  0.14885890  0.56985945  0.61078314  1
  O  O514  1  0.21124354  0.57855416  0.49290904  1
  O  O515  1  0.58791167  0.14653903  0.41006044  1
  O  O516  1  0.58550849  0.14849777  0.60825712  1
  O  O517  1  0.57366182  0.21015343  0.48929295  1
  O  O518  1  0.85581817  0.41247476  0.59081700  1
  O  O519  1  0.85381830  0.41499935  0.39230244  1
  O  O520  1  0.79149326  0.42833081  0.50996368  1
  O  O521  1  0.43544981  0.85355764  0.58617936  1
  O  O522  1  0.43239707  0.85131092  0.38963952  1
  O  O523  1  0.42327191  0.78799609  0.50676933  1
