# generated using pymatgen
data_Cu2H146C215S2(N4O3)2
_symmetry_space_group_name_H-M   'P 1'
_cell_length_a   56.52442726
_cell_length_b   30.91171429
_cell_length_c   62.24981601
_cell_angle_alpha   94.25383108
_cell_angle_beta   89.39858102
_cell_angle_gamma   65.19191662
_symmetry_Int_Tables_number   1
_chemical_formula_structural   Cu2H146C215S2(N4O3)2
_chemical_formula_sum   'Cu2 H146 C215 S2 N8 O6'
_cell_volume   98353.74069909
_cell_formula_units_Z   1
loop_
 _symmetry_equiv_pos_site_id
 _symmetry_equiv_pos_as_xyz
  1  'x, y, z'
loop_
 _atom_site_type_symbol
 _atom_site_label
 _atom_site_symmetry_multiplicity
 _atom_site_fract_x
 _atom_site_fract_y
 _atom_site_fract_z
 _atom_site_occupancy
  Cu  Cu0  1  0.01726593  0.61064422  0.72425923  1
  Cu  Cu1  1  0.01906777  0.54599836  0.30167101  1
  H  H2  1  0.00451781  0.03014423  0.59083375  1
  H  H3  1  0.00851243  0.10375245  0.65126873  1
  H  H4  1  0.00521020  0.16925557  0.59224225  1
  H  H5  1  0.00842173  0.00589894  0.43421516  1
  H  H6  1  0.00988262  0.06779052  0.37494342  1
  H  H7  1  0.00975835  0.14443346  0.43564816  1
  H  H8  1  0.98592626  0.77898948  0.70723757  1
  H  H9  1  0.98430393  0.70945521  0.72388769  1
  H  H10  1  0.04932040  0.61375322  0.68633161  1
  H  H11  1  0.05300248  0.67950692  0.66792203  1
  H  H12  1  0.92452428  0.65441835  0.74261413  1
  H  H13  1  0.96211310  0.65009417  0.71969809  1
  H  H14  1  0.01105828  0.61607514  0.77119931  1
  H  H15  1  0.97503181  0.62216940  0.79632868  1
  H  H16  1  0.02896355  0.48254707  0.66645216  1
  H  H17  1  0.02875482  0.55869482  0.68242627  1
  H  H18  1  0.99353939  0.54897551  0.74003083  1
  H  H19  1  0.99013127  0.47532754  0.72560232  1
  H  H20  1  0.07832593  0.63090307  0.78022764  1
  H  H21  1  0.04110304  0.66213118  0.75591715  1
  H  H22  1  0.06047674  0.52646436  0.72559556  1
  H  H23  1  0.09884709  0.49015000  0.74808427  1
  H  H24  1  0.99008466  0.42133331  0.31946044  1
  H  H25  1  0.98689343  0.49331334  0.30186225  1
  H  H26  1  0.04708460  0.50149042  0.33755004  1
  H  H27  1  0.05088069  0.43291427  0.35798477  1
  H  H28  1  0.92410952  0.61162474  0.28806758  1
  H  H29  1  0.96383191  0.57152451  0.30895440  1
  H  H30  1  0.01285468  0.54942935  0.25497783  1
  H  H31  1  0.97518067  0.58882518  0.23204550  1
  H  H32  1  0.02945887  0.65545810  0.35989094  1
  H  H33  1  0.02978734  0.58004371  0.34388973  1
  H  H34  1  0.99391265  0.64320551  0.28914264  1
  H  H35  1  0.99473323  0.72002697  0.30165319  1
  H  H36  1  0.07954890  0.45701695  0.24095417  1
  H  H37  1  0.04382088  0.47792765  0.26919736  1
  H  H38  1  0.05975746  0.58817198  0.29791187  1
  H  H39  1  0.09712763  0.56949293  0.27188918  1
  H  H40  1  0.76471353  0.80034708  0.15940198  1
  H  H41  1  0.79812991  0.69542135  0.14168954  1
  H  H42  1  0.78681378  0.66144422  0.11273323  1
  H  H43  1  0.75949711  0.66199837  0.08240008  1
  H  H44  1  0.71089872  0.81167322  0.09924906  1
  H  H45  1  0.73804428  0.81121028  0.13017091  1
  H  H46  1  0.72774420  0.66674324  0.06371464  1
  H  H47  1  0.74880402  0.68796268  0.05140447  1
  H  H48  1  0.74227753  0.76325465  0.00907803  1
  H  H49  1  0.75884887  0.70473203  0.01681948  1
  H  H50  1  0.74414737  0.75369291  0.03662925  1
  H  H51  1  0.69321873  0.67335491  0.06892797  1
  H  H52  1  0.68683720  0.63647566  0.04887275  1
  H  H53  1  0.66165912  0.69137233  0.05944750  1
  H  H54  1  0.66089643  0.77644844  0.97472011  1
  H  H55  1  0.63700618  0.78298603  0.99506036  1
  H  H56  1  0.65200311  0.72916517  0.97836379  1
  H  H57  1  0.64182031  0.69807700  0.00425693  1
  H  H58  1  0.64892146  0.67849814  0.03047534  1
  H  H59  1  0.61605089  0.67518332  0.02132399  1
  H  H60  1  0.57241581  0.67855457  0.01928246  1
  H  H61  1  0.53902544  0.83078442  0.03751777  1
  H  H62  1  0.58387418  0.82740063  0.03927134  1
  H  H63  1  0.50965878  0.79124248  0.03056379  1
  H  H64  1  0.53423808  0.68044693  0.01771052  1
  H  H65  1  0.68563753  0.80721807  0.98341933  1
  H  H66  1  0.71846995  0.78903053  0.99036390  1
  H  H67  1  0.70876039  0.83644487  0.96367040  1
  H  H68  1  0.73188873  0.86021550  0.93679082  1
  H  H69  1  0.76484502  0.71508633  0.90636725  1
  H  H70  1  0.74115798  0.69272687  0.93314368  1
  H  H71  1  0.76404983  0.83926077  0.90518288  1
  H  H72  1  0.77682472  0.73859270  0.88346129  1
  H  H73  1  0.26241317  0.42672962  0.86999317  1
  H  H74  1  0.26966109  0.32335468  0.87492992  1
  H  H75  1  0.30067656  0.28307131  0.90224007  1
  H  H76  1  0.32638862  0.28512167  0.93338965  1
  H  H77  1  0.30401157  0.43562535  0.92893533  1
  H  H78  1  0.27784201  0.43450630  0.89801017  1
  H  H79  1  0.35853709  0.29651390  0.95427561  1
  H  H80  1  0.32825158  0.31184087  0.96819150  1
  H  H81  1  0.29899354  0.37290343  0.01793460  1
  H  H82  1  0.31437659  0.31691742  0.00296145  1
  H  H83  1  0.29964149  0.36978319  0.98953733  1
  H  H84  1  0.38233787  0.32904498  0.94725382  1
  H  H85  1  0.40767374  0.29268647  0.96310353  1
  H  H86  1  0.40430949  0.35063528  0.95810160  1
  H  H87  1  0.36466887  0.42157053  0.05137095  1
  H  H88  1  0.38219505  0.43745296  0.03210976  1
  H  H89  1  0.39681786  0.38176425  0.04321777  1
  H  H90  1  0.41976464  0.36522887  0.01311663  1
  H  H91  1  0.42153843  0.35493827  0.98451173  1
  H  H92  1  0.45351684  0.36217094  0.99799634  1
  H  H93  1  0.49082858  0.38173499  0.00158042  1
  H  H94  1  0.44038901  0.53154546  0.99906750  1
  H  H95  1  0.40207341  0.51182234  0.99579709  1
  H  H96  1  0.48557761  0.50965898  0.00163853  1
  H  H97  1  0.52382834  0.40329878  0.00517721  1
  H  H98  1  0.33034665  0.42891007  0.04892041  1
  H  H99  1  0.30794072  0.40713869  0.03903530  1
  H  H100  1  0.30032027  0.44593752  0.07066743  1
  H  H101  1  0.26714441  0.46033194  0.09923739  1
  H  H102  1  0.30367527  0.31090350  0.11112861  1
  H  H103  1  0.33643083  0.29641517  0.08165745  1
  H  H104  1  0.24914908  0.43746768  0.12695600  1
  H  H105  1  0.27081644  0.33068674  0.13586456  1
  H  H106  1  0.81702899  0.71706993  0.81943106  1
  H  H107  1  0.86229209  0.76108983  0.86360856  1
  H  H108  1  0.82477242  0.79591957  0.88978931  1
  H  H109  1  0.77944206  0.75182592  0.84565124  1
  H  H110  1  0.81620581  0.70920073  0.22325294  1
  H  H111  1  0.86538984  0.73337391  0.17684650  1
  H  H112  1  0.82828626  0.76667998  0.15343379  1
  H  H113  1  0.77884141  0.74355450  0.20029271  1
  H  H114  1  0.17389937  0.41700005  0.84569512  1
  H  H115  1  0.21903248  0.46891685  0.80790088  1
  H  H116  1  0.25632192  0.43142124  0.83065300  1
  H  H117  1  0.21139481  0.37777899  0.86793945  1
  H  H118  1  0.17512429  0.39309569  0.16239504  1
  H  H119  1  0.21949871  0.44239287  0.20536770  1
  H  H120  1  0.25665219  0.41003252  0.17891652  1
  H  H121  1  0.21244368  0.35914042  0.13616558  1
  H  H122  1  0.52596664  0.61370089  0.99575444  1
  H  H123  1  0.53327624  0.59385374  0.02349714  1
  H  H124  1  0.48197624  0.61210606  -0.00075774  1
  H  H125  1  0.48928392  0.59154014  0.02699292  1
  H  H126  1  0.52675801  0.51783355  0.01200239  1
  H  H127  1  0.52107792  0.53726113  0.98405798  1
  H  H128  1  0.96827872  0.37284312  0.67443126  1
  H  H129  1  0.04982445  0.32500687  0.65638673  1
  H  H130  1  0.04850664  0.40095665  0.67345745  1
  H  H131  1  0.96741556  0.44772215  0.69228834  1
  H  H132  1  0.98130079  0.86093886  0.64621975  1
  H  H133  1  0.04736153  0.85899003  0.68097786  1
  H  H134  1  0.05276712  0.78355029  0.69583045  1
  H  H135  1  0.98626972  0.78612249  0.66179461  1
  H  H136  1  0.03949896  0.78383722  0.38129871  1
  H  H137  1  0.98026951  0.86142402  0.33815053  1
  H  H138  1  0.98076289  0.78563757  0.32232098  1
  H  H139  1  0.04309958  0.70798702  0.36315392  1
  H  H140  1  0.00866774  0.33983207  0.39516061  1
  H  H141  1  0.02193715  0.26929604  0.33081295  1
  H  H142  1  0.02631148  0.33849359  0.31676070  1
  H  H143  1  0.01405880  0.40805286  0.38105108  1
  H  H144  1  0.97177090  0.05808427  0.46154730  1
  H  H145  1  0.96944516  0.06731280  0.50288345  1
  H  H146  1  0.03867591  0.12350396  0.56479857  1
  H  H147  1  0.04023492  0.11599866  0.52349215  1
  C  C148  1  0.00452930  0.09966016  0.58864077  1
  C  C149  1  0.00470923  0.06180425  0.59966934  1
  C  C150  1  0.00667462  0.06231481  0.62227775  1
  C  C151  1  0.00744798  0.10267027  0.63378208  1
  C  C152  1  0.00678163  0.14164436  0.62309872  1
  C  C153  1  0.00585538  0.13884299  0.60049850  1
  C  C154  1  0.00911064  0.07547073  0.43779474  1
  C  C155  1  0.00865639  0.03561732  0.42589199  1
  C  C156  1  0.00955311  0.03148969  0.40321519  1
  C  C157  1  0.00994461  0.06970085  0.39249163  1
  C  C158  1  0.01038002  0.11037739  0.40398407  1
  C  C159  1  0.01018767  0.11235518  0.42673444  1
  C  C160  1  0.00886112  0.47303789  0.69444559  1
  C  C161  1  0.02097345  0.49603344  0.68285751  1
  C  C162  1  0.02075865  0.53879472  0.69162386  1
  C  C163  1  0.00048963  0.53406830  0.72355963  1
  C  C164  1  -0.00168912  0.49303432  0.71522260  1
  C  C165  1  0.09201520  0.55727057  0.76650293  1
  C  C166  1  0.07506448  0.60661499  0.76822928  1
  C  C167  1  0.05441076  0.62422169  0.75466846  1
  C  C168  1  0.06534413  0.54849046  0.73765393  1
  C  C169  1  0.08641385  0.52846106  0.75039000  1
  C  C170  1  0.02093272  0.73504521  0.68753290  1
  C  C171  1  0.00037997  0.74282455  0.70229204  1
  C  C172  1  -0.00072548  0.70422040  0.71150618  1
  C  C173  1  0.03567212  0.65086850  0.69060699  1
  C  C174  1  0.03817795  0.68795113  0.68085823  1
  C  C175  1  0.94555155  0.64558235  0.77226361  1
  C  C176  1  0.94301517  0.64898198  0.74974878  1
  C  C177  1  0.96384406  0.64603529  0.73696510  1
  C  C178  1  0.99124677  0.62725417  0.76577371  1
  C  C179  1  0.97117024  0.63064132  0.77964759  1
  C  C180  1  0.01210247  0.69539863  0.33227339  1
  C  C181  1  0.02251835  0.65433272  0.34368618  1
  C  C182  1  0.02186463  0.61207085  0.33515698  1
  C  C183  1  0.00168411  0.64746512  0.30473236  1
  C  C184  1  0.00176621  0.69090211  0.31214937  1
  C  C185  1  0.09240854  0.51005068  0.25455664  1
  C  C186  1  0.07606759  0.48555637  0.25368408  1
  C  C187  1  0.05602162  0.49748543  0.26897972  1
  C  C188  1  0.06489431  0.55903866  0.28522981  1
  C  C189  1  0.08576969  0.54833213  0.27075559  1
  C  C190  1  0.02200169  0.41921259  0.33901176  1
  C  C191  1  0.00350054  0.43757100  0.32339836  1
  C  C192  1  0.00088316  0.47870565  0.31425980  1
  C  C193  1  0.03406887  0.48390546  0.33470520  1
  C  C194  1  0.03655486  0.44462817  0.34561336  1
  C  C195  1  0.94623526  0.60518042  0.25831135  1
  C  C196  1  0.94357735  0.59829741  0.28029504  1
  C  C197  1  0.96549443  0.57534160  0.29177898  1
  C  C198  1  0.99289528  0.56274077  0.26156903  1
  C  C199  1  0.97193667  0.58565786  0.24906717  1
  C  C200  1  0.78073670  0.76455305  0.15781764  1
  C  C201  1  0.78238142  0.73126215  0.14168545  1
  C  C202  1  0.76485647  0.73582114  0.12409001  1
  C  C203  1  0.77018611  0.69460494  0.10989722  1
  C  C204  1  0.75496235  0.69500790  0.09254729  1
  C  C205  1  0.73378896  0.73735740  0.08856084  1
  C  C206  1  0.72763299  0.77883812  0.10238434  1
  C  C207  1  0.74299950  0.77826027  0.11984913  1
  C  C208  1  0.72825361  0.69707563  0.05585191  1
  C  C209  1  0.71128260  0.70848615  0.03682854  1
  C  C210  1  0.68898141  0.69895296  0.03683109  1
  C  C211  1  0.67215212  0.71372952  0.01962330  1
  C  C212  1  0.67649068  0.73921491  0.00317525  1
  C  C213  1  0.69925091  0.74763254  0.00324938  1
  C  C214  1  0.71682955  0.73186850  0.01997935  1
  C  C215  1  0.74158526  0.73886901  0.02066174  1
  C  C216  1  0.68248151  0.67396977  0.05433177  1
  C  C217  1  0.65578053  0.75790491  0.98702046  1
  C  C218  1  0.64745936  0.70702568  0.02030071  1
  C  C219  1  0.60253133  0.75174842  0.02964271  1
  C  C220  1  0.59939098  0.70970520  0.02455758  1
  C  C221  1  0.57446083  0.71155765  0.02368934  1
  C  C222  1  0.55237897  0.75495630  0.02814627  1
  C  C223  1  0.55600039  0.79687442  0.03394866  1
  C  C224  1  0.58095417  0.79520457  0.03489580  1
  C  C225  1  0.52600822  0.75635412  0.02685770  1
  C  C226  1  0.52183256  0.71802079  0.02141900  1
  C  C227  1  0.70381119  0.77565824  0.98606034  1
  C  C228  1  0.72454472  0.76214168  0.95079210  1
  C  C229  1  0.72161239  0.80953271  0.95140209  1
  C  C230  1  0.73467553  0.82297772  0.93597351  1
  C  C231  1  0.75128024  0.78978076  0.91935092  1
  C  C232  1  0.75274584  0.74264490  0.91870627  1
  C  C233  1  0.73939543  0.72935869  0.93393066  1
  C  C234  1  0.76641833  0.80223344  0.90376487  1
  C  C235  1  0.78056907  0.77037297  0.88696932  1
  C  C236  1  0.25697277  0.39657758  0.86814976  1
  C  C237  1  0.26956988  0.35812115  0.87974357  1
  C  C238  1  0.28610224  0.35875376  0.89755707  1
  C  C239  1  0.30074323  0.31714669  0.90813187  1
  C  C240  1  0.31545891  0.31812146  0.92584404  1
  C  C241  1  0.31631538  0.36107199  0.93362303  1
  C  C242  1  0.30297867  0.40232643  0.92307876  1
  C  C243  1  0.28815243  0.40128995  0.90549711  1
  C  C244  1  0.34258970  0.32567882  0.96397544  1
  C  C245  1  0.35238057  0.34392907  0.98351114  1
  C  C246  1  0.37603658  0.34913650  0.98172166  1
  C  C247  1  0.38382686  0.37030685  -0.00044244  1
  C  C248  1  0.36860377  0.38544613  0.01917284  1
  C  C249  1  0.34507351  0.37990610  0.02062885  1
  C  C250  1  0.33665992  0.35950994  0.00287701  1
  C  C251  1  0.31126821  0.35466953  0.00344294  1
  C  C252  1  0.39330208  0.32978100  0.96159130  1
  C  C253  1  0.37833246  0.40764981  0.03733344  1
  C  C254  1  0.40882337  0.37640327  0.99841259  1
  C  C255  1  0.42513229  0.43599660  0.99741395  1
  C  C256  1  0.45018199  0.39960460  0.99863791  1
  C  C257  1  0.47155767  0.41081246  0.00036859  1
  C  C258  1  0.46836143  0.45838057  0.00056759  1
  C  C259  1  0.44300726  0.49454644  0.99887532  1
  C  C260  1  0.42155244  0.48356905  0.99720216  1
  C  C261  1  0.49053045  0.47171754  0.00231684  1
  C  C262  1  0.51500218  0.44180628  0.00456454  1
  C  C263  1  0.32877991  0.39695508  0.04134941  1
  C  C264  1  0.31969005  0.36955947  0.07354308  1
  C  C265  1  0.30068393  0.41593081  0.07902592  1
  C  C266  1  0.28232749  0.42423571  0.09559062  1
  C  C267  1  0.28249613  0.38728853  0.10778714  1
  C  C268  1  0.30257426  0.34082485  0.10231269  1
  C  C269  1  0.32110876  0.33230685  0.08564022  1
  C  C270  1  0.26246203  0.39952238  0.12504516  1
  C  C271  1  0.25829854  0.36913457  0.13764380  1
  C  C272  1  0.81875213  0.73384463  0.83502874  1
  C  C273  1  0.84322566  0.73372131  0.83998162  1
  C  C274  1  0.84407235  0.75843372  0.85999694  1
  C  C275  1  0.82306454  0.77712503  0.87481074  1
  C  C276  1  0.92386872  0.65722976  0.78638942  1
  C  C277  1  0.79799220  0.75232035  0.84986582  1
  C  C278  1  0.86478879  0.71141728  0.82534292  1
  C  C279  1  0.88386391  0.69229088  0.81270539  1
  C  C280  1  0.90465750  0.67253444  0.79896498  1
  C  C281  1  0.80011034  0.77022655  0.87097335  1
  C  C282  1  0.81869141  0.72162795  0.20780002  1
  C  C283  1  0.84400093  0.71660848  0.20141513  1
  C  C284  1  0.84642413  0.73482716  0.18161108  1
  C  C285  1  0.82573492  0.75256590  0.16839256  1
  C  C286  1  0.92450757  0.63003765  0.24641556  1
  C  C287  1  0.79790281  0.74034176  0.19472100  1
  C  C288  1  0.86553960  0.69513318  0.21403040  1
  C  C289  1  0.88463570  0.67437419  0.22459124  1
  C  C290  1  0.90541195  0.65134421  0.23597126  1
  C  C291  1  0.80113629  0.75347347  0.17392580  1
  C  C292  1  0.19210260  0.42021910  0.84257072  1
  C  C293  1  0.19291907  0.44799408  0.82555851  1
  C  C294  1  0.21726176  0.44971012  0.82140002  1
  C  C295  1  0.23798406  0.42929341  0.83438002  1
  C  C296  1  0.11324266  0.53685350  0.77968179  1
  C  C297  1  0.21318949  0.39873346  0.85522387  1
  C  C298  1  0.17136483  0.47180181  0.81315890  1
  C  C299  1  0.15252467  0.49319799  0.80239537  1
  C  C300  1  0.13201539  0.51645516  0.79066290  1
  C  C301  1  0.23641476  0.40527567  0.85246241  1
  C  C302  1  0.19300906  0.39716735  0.16580649  1
  C  C303  1  0.19384842  0.42245704  0.18560981  1
  C  C304  1  0.21785442  0.42527135  0.18984213  1
  C  C305  1  0.23851728  0.40758657  0.17483745  1
  C  C306  1  0.11398018  0.49585071  0.24003912  1
  C  C307  1  0.21395349  0.37842496  0.15109061  1
  C  C308  1  0.17238250  0.44280528  0.20038555  1
  C  C309  1  0.15349107  0.46064087  0.21323759  1
  C  C310  1  0.13293215  0.47996408  0.22723919  1
  C  C311  1  0.23691486  0.38532199  0.15452083  1
  C  C312  1  0.52004598  0.54743956  0.00148837  1
  C  C313  1  0.52333447  0.59292541  0.00847131  1
  C  C314  1  0.49661989  0.59233434  0.01062120  1
  C  C315  1  0.98598204  0.37877038  0.67476022  1
  C  C316  1  0.00925233  0.34253207  0.66457204  1
  C  C317  1  0.03174785  0.35197644  0.66416285  1
  C  C318  1  0.03098934  0.39447707  0.67345266  1
  C  C319  1  0.00772753  0.18333165  0.63316506  1
  C  C320  1  0.98557766  0.42027091  0.68491540  1
  C  C321  1  0.00951660  0.29940544  0.65549567  1
  C  C322  1  0.00905692  0.26172539  0.64829408  1
  C  C323  1  0.00840345  0.22073228  0.64051673  1
  C  C324  1  0.00816170  0.42871329  0.68437890  1
  C  C325  1  0.99703664  0.84375052  0.65694331  1
  C  C326  1  0.01443642  0.86496997  0.66202486  1
  C  C327  1  0.03447392  0.84204468  0.67639164  1
  C  C328  1  0.03763714  0.79971604  0.68448079  1
  C  C329  1  0.00806039  0.02146819  0.63186574  1
  C  C330  1  0.99977101  0.80216321  0.66551517  1
  C  C331  1  0.01215547  0.90732755  0.65363539  1
  C  C332  1  0.01081997  0.94436938  0.64669534  1
  C  C333  1  0.00938715  0.98472858  0.63914316  1
  C  C334  1  0.02066022  0.77876517  0.67861113  1
  C  C335  1  0.02703348  0.78403898  0.36800445  1
  C  C336  1  0.01006763  0.82873556  0.36085020  1
  C  C337  1  0.99377120  0.82758749  0.34377958  1
  C  C338  1  0.99443093  0.78506255  0.33460242  1
  C  C339  1  0.00943666  0.98916756  0.39306678  1
  C  C340  1  0.02828100  0.74143788  0.35836552  1
  C  C341  1  0.00968511  0.87186524  0.37005231  1
  C  C342  1  0.00959630  0.90985651  0.37747232  1
  C  C343  1  0.00950473  0.95126319  0.38554384  1
  C  C344  1  0.01170547  0.74084984  0.34164259  1
  C  C345  1  0.01359890  0.33876740  0.37810062  1
  C  C346  1  0.01604014  0.29821969  0.36423446  1
  C  C347  1  0.02059801  0.29944026  0.34183543  1
  C  C348  1  0.02299052  0.33802206  0.33400044  1
  C  C349  1  0.01080441  0.14982449  0.39420429  1
  C  C350  1  0.01699382  0.37652091  0.37033773  1
  C  C351  1  0.01385172  0.25866306  0.37217209  1
  C  C352  1  0.01271005  0.22339437  0.37911601  1
  C  C353  1  0.01152012  0.18492257  0.38669237  1
  C  C354  1  0.02227719  0.37614577  0.34822606  1
  C  C355  1  0.00457979  0.07825420  0.46121049  1
  C  C356  1  0.98571573  0.06710267  0.47079338  1
  C  C357  1  0.98442361  0.07209871  0.49341299  1
  C  C358  1  0.00313947  0.08616684  0.50240875  1
  C  C359  1  0.00768267  0.09858564  0.56521847  1
  C  C360  1  0.02525663  0.11290038  0.55560248  1
  C  C361  1  0.02611934  0.10884956  0.53300455  1
  C  C362  1  0.00801886  0.09304785  0.52407178  1
  S  S363  1  0.02151016  0.09516239  0.48141470  1
  S  S364  1  0.99128939  0.08008818  0.54508974  1
  N  N365  1  0.01687255  0.65894975  0.70592757  1
  N  N366  1  0.98734190  0.63787323  0.74505480  1
  N  N367  1  0.01079710  0.55747623  0.71174381  1
  N  N368  1  0.04958137  0.59582903  0.73949033  1
  N  N369  1  0.01570832  0.50191502  0.32007220  1
  N  N370  1  0.98986408  0.55681307  0.28255602  1
  N  N371  1  0.01113641  0.60875447  0.31619824  1
  N  N372  1  0.05020579  0.53409929  0.28437721  1
  O  O373  1  0.71869712  0.73917020  0.07146314  1
  O  O374  1  0.71296760  0.74616069  0.96569850  1
  O  O375  1  0.62658760  0.75167298  0.02948995  1
  O  O376  1  0.33011474  0.36567573  0.95078079  1
  O  O377  1  0.33701676  0.36014966  0.05654126  1
  O  O378  1  0.40370925  0.42641096  0.99656473  1
