# generated using pymatgen
data_FeH242C348S2(NO3)4
_symmetry_space_group_name_H-M   'P 1'
_cell_length_a   83.73359166
_cell_length_b   82.40826847
_cell_length_c   38.53670648
_cell_angle_alpha   89.72011748
_cell_angle_beta   89.69837300
_cell_angle_gamma   110.70489791
_symmetry_Int_Tables_number   1
_chemical_formula_structural   FeH242C348S2(NO3)4
_chemical_formula_sum   'Fe1 H242 C348 S2 N4 O12'
_cell_volume   248731.94697846
_cell_formula_units_Z   1
loop_
 _symmetry_equiv_pos_site_id
 _symmetry_equiv_pos_as_xyz
  1  'x, y, z'
loop_
 _atom_site_type_symbol
 _atom_site_label
 _atom_site_symmetry_multiplicity
 _atom_site_fract_x
 _atom_site_fract_y
 _atom_site_fract_z
 _atom_site_occupancy
  Fe  Fe0  1  0.53271292  0.53263013  0.50056575  1
  H  H1  1  0.07357909  0.50358096  0.00436568  1
  H  H2  1  0.04234339  0.52109528  0.91637135  1
  H  H3  1  0.04199944  0.52079682  0.09281649  1
  H  H4  1  0.09692316  0.52443174  0.88272377  1
  H  H5  1  0.08718340  0.53068164  0.94015786  1
  H  H6  1  0.03891378  0.48955631  0.92424980  1
  H  H7  1  0.05022624  0.48132837  0.87032714  1
  H  H8  1  0.09741968  0.52425979  0.12542785  1
  H  H9  1  0.08734735  0.53129522  0.06923098  1
  H  H10  1  0.03992380  0.48869791  0.08451320  1
  H  H11  1  0.05166482  0.47972130  0.13682908  1
  H  H12  1  0.98828737  0.55088628  0.00452058  1
  H  H13  1  0.01955835  0.53329608  0.91644330  1
  H  H14  1  0.01980404  0.53381200  0.09276559  1
  H  H15  1  0.96516159  0.52985780  0.88330873  1
  H  H16  1  0.97461855  0.52345369  0.94087730  1
  H  H17  1  0.02284899  0.56496420  0.92461613  1
  H  H18  1  0.01181080  0.57328841  0.87043545  1
  H  H19  1  0.96431408  0.53029175  0.12575281  1
  H  H20  1  0.97448828  0.52350568  0.06925589  1
  H  H21  1  0.02213292  0.56574532  0.08378272  1
  H  H22  1  0.01033970  0.57451675  0.13643415  1
  H  H23  1  0.54934952  0.98655614  0.00353154  1
  H  H24  1  0.53308820  0.01912125  0.91529468  1
  H  H25  1  0.53313448  0.01902309  0.09176676  1
  H  H26  1  0.58073723  0.00732300  0.88624215  1
  H  H27  1  0.57178118  0.01458852  0.94355046  1
  H  H28  1  0.51974425  0.98390087  0.91915656  1
  H  H29  1  0.52952254  0.97322583  0.86629749  1
  H  H30  1  0.58050557  0.00781137  0.12068369  1
  H  H31  1  0.57165216  0.01574444  0.06380542  1
  H  H32  1  0.51982680  0.98295717  0.08676610  1
  H  H33  1  0.52956109  0.97198729  0.13943192  1
  H  H34  1  0.50527059  0.07499715  0.00348112  1
  H  H35  1  0.52136378  0.04246225  0.91531353  1
  H  H36  1  0.52161746  0.04252764  0.09170650  1
  H  H37  1  0.47417250  0.05434745  0.88631695  1
  H  H38  1  0.48274041  0.04680878  0.94377021  1
  H  H39  1  0.53494913  0.07781330  0.91936433  1
  H  H40  1  0.52551911  0.08867629  0.86623588  1
  H  H41  1  0.47421695  0.05407978  0.12077570  1
  H  H42  1  0.48322980  0.04627846  0.06380958  1
  H  H43  1  0.53513302  0.07851689  0.08606123  1
  H  H44  1  0.52530721  0.08944538  0.13872260  1
  H  H45  1  0.52237017  0.50039628  0.44920229  1
  H  H46  1  0.51504107  0.46838509  0.45424817  1
  H  H47  1  0.51261954  0.47394439  0.56484769  1
  H  H48  1  0.52420681  0.50598073  0.55638626  1
  H  H49  1  0.50453429  0.52824463  0.55733012  1
  H  H50  1  0.47292149  0.51921169  0.56057401  1
  H  H51  1  0.47158804  0.51654293  0.44976746  1
  H  H52  1  0.50346510  0.52785124  0.44940199  1
  H  H53  1  0.52707891  0.56398124  0.45741038  1
  H  H54  1  0.53610371  0.59604207  0.46512175  1
  H  H55  1  0.56712320  0.59101085  0.55045792  1
  H  H56  1  0.55381148  0.55896757  0.54520993  1
  H  H57  1  0.54526905  0.52664595  0.42872533  1
  H  H58  1  0.55799416  0.52220382  0.54372955  1
  H  H59  1  0.58931511  0.52894038  0.54890549  1
  H  H60  1  0.59663670  0.56239921  0.46002111  1
  H  H61  1  0.56489167  0.55369453  0.45648906  1
  H  H62  1  0.52828654  0.54604900  0.57733681  1
  H  H63  1  0.13542613  0.46022862  0.29686011  1
  H  H64  1  0.10948560  0.42265983  0.30548704  1
  H  H65  1  0.11706549  0.40554943  0.35234579  1
  H  H66  1  0.13487865  0.40363541  0.40131237  1
  H  H67  1  0.16636753  0.45736769  0.38630432  1
  H  H68  1  0.14867225  0.45964014  0.33736724  1
  H  H69  1  0.16017634  0.40498369  0.43398936  1
  H  H70  1  0.14543741  0.41237098  0.45596286  1
  H  H71  1  0.14668794  0.43787605  0.52966032  1
  H  H72  1  0.13921334  0.41735522  0.50996736  1
  H  H73  1  0.14565121  0.43638948  0.48392985  1
  H  H74  1  0.18490038  0.41239093  0.42076790  1
  H  H75  1  0.19020347  0.39892847  0.45111663  1
  H  H76  1  0.20590896  0.41842626  0.43608017  1
  H  H77  1  0.20483091  0.45114172  0.57730162  1
  H  H78  1  0.22051603  0.45488250  0.54432009  1
  H  H79  1  0.21346929  0.43509136  0.56770923  1
  H  H80  1  0.22139849  0.42441621  0.52240761  1
  H  H81  1  0.21913444  0.42049061  0.47702607  1
  H  H82  1  0.24298171  0.42119508  0.49846153  1
  H  H83  1  0.27355244  0.42641149  0.50251268  1
  H  H84  1  0.28444078  0.48127182  0.48643573  1
  H  H85  1  0.25347350  0.47600937  0.48373304  1
  H  H86  1  0.30596620  0.47323400  0.49058531  1
  H  H87  1  0.30648696  0.43677182  0.50762363  1
  H  H88  1  0.18559496  0.45705747  0.57200507  1
  H  H89  1  0.16451766  0.45200138  0.55717323  1
  H  H90  1  0.17146543  0.46625739  0.60500503  1
  H  H91  1  0.15429711  0.47459039  0.64845253  1
  H  H92  1  0.13125031  0.42092257  0.68098785  1
  H  H93  1  0.14790122  0.41258738  0.63557341  1
  H  H94  1  0.13539596  0.46882172  0.69398380  1
  H  H95  1  0.11710849  0.43126252  0.72133614  1
  H  H96  1  0.43517355  0.12040271  0.29302416  1
  H  H97  1  0.47387238  0.13344338  0.31021440  1
  H  H98  1  0.48530287  0.15160978  0.35422062  1
  H  H99  1  0.48396972  0.17067816  0.40198395  1
  H  H100  1  0.42946027  0.15552365  0.38866867  1
  H  H101  1  0.43074644  0.13677217  0.33938901  1
  H  H102  1  0.48058777  0.19062904  0.43146614  1
  H  H103  1  0.47504494  0.17048594  0.45367089  1
  H  H104  1  0.45012905  0.15175219  0.52750718  1
  H  H105  1  0.47040383  0.15943228  0.50756669  1
  H  H106  1  0.45177408  0.15274887  0.48181368  1
  H  H107  1  0.47612738  0.21104491  0.42340396  1
  H  H108  1  0.48805257  0.22634622  0.45413045  1
  H  H109  1  0.46832889  0.22683426  0.43868435  1
  H  H110  1  0.43652396  0.20045486  0.58016711  1
  H  H111  1  0.43240765  0.21387030  0.54771530  1
  H  H112  1  0.45180092  0.22101445  0.57071042  1
  H  H113  1  0.46242367  0.23748197  0.52730032  1
  H  H114  1  0.46804960  0.23860482  0.48258688  1
  H  H115  1  0.46702398  0.26159517  0.49852054  1
  H  H116  1  0.46273252  0.28917742  0.50203431  1
  H  H117  1  0.40842151  0.26297617  0.48799708  1
  H  H118  1  0.41293144  0.23485273  0.48460155  1
  H  H119  1  0.41906612  0.29385740  0.49524194  1
  H  H120  1  0.45778539  0.31226180  0.50731246  1
  H  H121  1  0.42823393  0.17513333  0.56901580  1
  H  H122  1  0.43599593  0.15880751  0.55555677  1
  H  H123  1  0.42102978  0.15104685  0.60425810  1
  H  H124  1  0.41628627  0.12880850  0.64959132  1
  H  H125  1  0.46929764  0.15273667  0.68083949  1
  H  H126  1  0.47349997  0.17487530  0.63550164  1
  H  H127  1  0.42790231  0.11534775  0.69880824  1
  H  H128  1  0.46519386  0.13815391  0.71724937  1
  H  H129  1  0.94300605  0.62058283  0.71528473  1
  H  H130  1  0.92901382  0.58131170  0.69776132  1
  H  H131  1  0.91091727  0.57015832  0.65395486  1
  H  H132  1  0.89221339  0.57201786  0.60650263  1
  H  H133  1  0.90847516  0.62748773  0.61988984  1
  H  H134  1  0.92685705  0.62567891  0.66886458  1
  H  H135  1  0.87244468  0.57614108  0.57764088  1
  H  H136  1  0.89202069  0.58098734  0.55485502  1
  H  H137  1  0.91091019  0.60600886  0.48107077  1
  H  H138  1  0.90288411  0.58542758  0.50100481  1
  H  H139  1  0.90992271  0.60435840  0.52674791  1
  H  H140  1  0.85243648  0.58088325  0.58521872  1
  H  H141  1  0.83727408  0.56921603  0.55427463  1
  H  H142  1  0.83726349  0.58936713  0.57010920  1
  H  H143  1  0.86366394  0.62090705  0.42806221  1
  H  H144  1  0.85049953  0.62539143  0.46027754  1
  H  H145  1  0.84331622  0.60560435  0.43757781  1
  H  H146  1  0.82712194  0.59564302  0.48141324  1
  H  H147  1  0.82586991  0.59012976  0.52624004  1
  H  H148  1  0.80343800  0.59084025  0.50958803  1
  H  H149  1  0.77628907  0.59517466  0.50232046  1
  H  H150  1  0.80093826  0.64997545  0.52143360  1
  H  H151  1  0.82887226  0.64594644  0.52366878  1
  H  H152  1  0.76800870  0.63615299  0.50959892  1
  H  H153  1  0.75466360  0.59804744  0.53210730  1
  H  H154  1  0.88860561  0.62872746  0.43891397  1
  H  H155  1  0.90439752  0.62061526  0.45307752  1
  H  H156  1  0.91285779  0.63560627  0.40468541  1
  H  H157  1  0.93478353  0.64001892  0.35962573  1
  H  H158  1  0.91006316  0.58649999  0.32728235  1
  H  H159  1  0.88828570  0.58258091  0.37248412  1
  H  H160  1  0.94777556  0.62800301  0.31038693  1
  H  H161  1  0.92473783  0.59042591  0.29117979  1
  H  H162  1  0.59580652  0.92755114  0.71119669  1
  H  H163  1  0.63271319  0.95419163  0.70358227  1
  H  H164  1  0.64991889  0.94688763  0.65697779  1
  H  H165  1  0.65220839  0.92911748  0.60770079  1
  H  H166  1  0.59934118  0.89673757  0.62131224  1
  H  H167  1  0.59668076  0.91440510  0.67048321  1
  H  H168  1  0.65132107  0.90396744  0.57426833  1
  H  H169  1  0.64368128  0.91867853  0.55241086  1
  H  H170  1  0.61850704  0.91722882  0.47905844  1
  H  H171  1  0.63870985  0.92501293  0.49863754  1
  H  H172  1  0.62000849  0.91829092  0.52475797  1
  H  H173  1  0.64447198  0.87894550  0.58724400  1
  H  H174  1  0.65778793  0.87398274  0.55645058  1
  H  H175  1  0.63899586  0.85761306  0.57201950  1
  H  H176  1  0.60600540  0.85836294  0.43116052  1
  H  H177  1  0.60236908  0.84225316  0.46382552  1
  H  H178  1  0.62194477  0.84979031  0.44076451  1
  H  H179  1  0.63197346  0.84132701  0.48657492  1
  H  H180  1  0.63539794  0.84335332  0.53207957  1
  H  H181  1  0.63527067  0.81950736  0.51025095  1
  H  H182  1  0.63097191  0.78878920  0.50568063  1
  H  H183  1  0.57677565  0.77575715  0.52210742  1
  H  H184  1  0.58105758  0.80706688  0.52446082  1
  H  H185  1  0.58802025  0.75231461  0.51360619  1
  H  H186  1  0.62694721  0.76222475  0.51526632  1
  H  H187  1  0.59956755  0.87756256  0.43739058  1
  H  H188  1  0.60474200  0.89909550  0.45163067  1
  H  H189  1  0.59038307  0.89134350  0.40402616  1
  H  H190  1  0.58185123  0.90838293  0.36023442  1
  H  H191  1  0.63456760  0.93223295  0.32721919  1
  H  H192  1  0.64310124  0.91565891  0.37283925  1
  H  H193  1  0.58734954  0.92747024  0.31432534  1
  H  H194  1  0.62432027  0.94607144  0.28686643  1
  H  H195  1  0.45733350  0.48657888  0.49041642  1
  H  H196  1  0.45542414  0.49032477  0.53533805  1
  H  H197  1  0.43459822  0.51045314  0.54720310  1
  H  H198  1  0.40330545  0.49853841  0.55017009  1
  H  H199  1  0.40262445  0.46654389  0.46137410  1
  H  H200  1  0.43376718  0.47989282  0.45657577  1
  H  H201  1  0.33128072  0.47181341  0.48396419  1
  H  H202  1  0.32894446  0.47061804  0.52980973  1
  H  H203  1  0.34800094  0.46037205  0.56443895  1
  H  H204  1  0.37938586  0.47295523  0.56394183  1
  H  H205  1  0.37908763  0.47065483  0.45207821  1
  H  H206  1  0.34798508  0.45585824  0.45341995  1
  H  H207  1  0.53171220  0.45319267  0.50357296  1
  H  H208  1  0.52286936  0.45200898  0.54557995  1
  H  H209  1  0.48484440  0.43791049  0.53481475  1
  H  H210  1  0.46701038  0.40715275  0.53453388  1
  H  H211  1  0.50768081  0.39521758  0.48431038  1
  H  H212  1  0.52518693  0.42603253  0.48341978  1
  H  H213  1  0.43623990  0.32696146  0.46822970  1
  H  H214  1  0.42855175  0.32541446  0.51131242  1
  H  H215  1  0.44315577  0.34888033  0.55188996  1
  H  H216  1  0.46196239  0.37921109  0.55678406  1
  H  H217  1  0.48629141  0.37505395  0.45991132  1
  H  H218  1  0.46818755  0.34441153  0.45650216  1
  H  H219  1  0.60934502  0.57380201  0.53214129  1
  H  H220  1  0.61162965  0.55581593  0.55400907  1
  H  H221  1  0.63236563  0.54129630  0.52205987  1
  H  H222  1  0.66362909  0.55243676  0.51986548  1
  H  H223  1  0.66319404  0.60378458  0.49927047  1
  H  H224  1  0.63201712  0.59222321  0.49886000  1
  H  H225  1  0.74262893  0.61390510  0.46895378  1
  H  H226  1  0.74012264  0.59193015  0.47626683  1
  H  H227  1  0.72071825  0.58077832  0.54210856  1
  H  H228  1  0.68967817  0.56956034  0.54804830  1
  H  H229  1  0.68634004  0.60614320  0.47057255  1
  H  H230  1  0.71742471  0.61850425  0.46761366  1
  H  H231  1  0.53677877  0.61045111  0.53582732  1
  H  H232  1  0.55609392  0.61214090  0.55613888  1
  H  H233  1  0.58130134  0.62697118  0.49190152  1
  H  H234  1  0.59809112  0.65806688  0.48948208  1
  H  H235  1  0.55597678  0.66914488  0.53555494  1
  H  H236  1  0.53886511  0.63818504  0.53543501  1
  H  H237  1  0.60610173  0.74057625  0.45863073  1
  H  H238  1  0.62594680  0.74086852  0.47479939  1
  H  H239  1  0.62732223  0.71599813  0.50741654  1
  H  H240  1  0.61281435  0.68488241  0.51803772  1
  H  H241  1  0.56425374  0.69078170  0.50066994  1
  H  H242  1  0.57881987  0.72203700  0.49253391  1
  C  C243  1  0.00472334  0.54174342  0.97323139  1
  C  C244  1  0.00466202  0.54185039  0.03609931  1
  C  C245  1  0.01799723  0.53465713  0.97252752  1
  C  C246  1  0.01796938  0.53476647  0.03676366  1
  C  C247  1  0.02461238  0.53071846  0.94102959  1
  C  C248  1  0.02467709  0.53093590  0.06816744  1
  C  C249  1  -0.00200918  0.54488263  0.00463358  1
  C  C250  1  0.02450098  0.53091464  0.00467651  1
  C  C251  1  0.07581873  0.50003677  0.87646261  1
  C  C252  1  0.07683183  0.49942464  0.13158801  1
  C  C253  1  0.08509005  0.51559052  0.89414770  1
  C  C254  1  0.08569264  0.51535254  0.11419386  1
  C  C255  1  0.07936275  0.51935827  0.92567816  1
  C  C256  1  0.07974321  0.51955232  0.08322672  1
  C  C257  1  0.06325723  0.50888485  0.93871025  1
  C  C258  1  0.06378010  0.50902867  0.07023978  1
  C  C259  1  0.05217031  0.49630945  0.91661464  1
  C  C260  1  0.05311626  0.49566624  0.09188412  1
  C  C261  1  0.05844248  0.49166241  0.88667408  1
  C  C262  1  0.05961913  0.49068733  0.12114085  1
  C  C263  1  0.05706356  0.51253428  0.97309990  1
  C  C264  1  0.05729969  0.51274098  0.03612508  1
  C  C265  1  0.04386984  0.51972788  0.97246288  1
  C  C266  1  0.04397454  0.51981656  0.03679928  1
  C  C267  1  0.03726481  0.52366093  0.94099839  1
  C  C268  1  0.03721175  0.52368922  0.06818516  1
  C  C269  1  0.06385601  0.50955688  0.00452106  1
  C  C270  1  0.03743342  0.52357071  0.00467445  1
  C  C271  1  0.98628878  0.55429481  0.87676911  1
  C  C272  1  0.98513478  0.55492286  0.13150906  1
  C  C273  1  0.97693852  0.53864663  0.89457888  1
  C  C274  1  0.97614188  0.53913913  0.11432690  1
  C  C275  1  0.98250607  0.53480276  0.92614043  1
  C  C276  1  0.98211746  0.53508727  0.08326659  1
  C  C277  1  -0.00147502  0.54531688  0.93890939  1
  C  C278  1  -0.00180032  0.54557987  0.07017534  1
  C  C279  1  0.00970666  0.55809369  0.91681223  1
  C  C280  1  0.00893343  0.55878104  0.09153853  1
  C  C281  1  0.00358960  0.56278889  0.88683152  1
  C  C282  1  0.00241109  0.56365438  0.12087405  1
  C  C283  1  0.51384734  0.05811475  0.97191485  1
  C  C284  1  0.51403944  0.05815063  0.03476829  1
  C  C285  1  0.52067325  0.04449129  0.97134481  1
  C  C286  1  0.52079983  0.04449200  0.03559671  1
  C  C287  1  0.52399978  0.03738497  0.93992134  1
  C  C288  1  0.52418014  0.03742420  0.06710682  1
  C  C289  1  0.51027057  0.06444238  0.00337898  1
  C  C290  1  0.52408577  0.03760904  0.00346031  1
  C  C291  1  0.55646106  0.98703489  0.87541790  1
  C  C292  1  0.55635582  0.98707539  0.13108576  1
  C  C293  1  0.56774882  0.00067803  0.89576452  1
  C  C294  1  0.56760861  0.00114790  0.11113315  1
  C  C295  1  0.56258914  0.00516666  0.92704950  1
  C  C296  1  0.56253927  0.00586768  0.08003534  1
  C  C297  1  0.54537201  -0.00219013  0.93767349  1
  C  C298  1  0.54550980  -0.00206055  0.06906662  1
  C  C299  1  0.53337025  0.98772591  0.91366714  1
  C  C300  1  0.53340674  0.98718254  0.09257984  1
  C  C301  1  0.53882527  0.98186037  0.88384986  1
  C  C302  1  0.53879364  0.98127485  0.12233528  1
  C  C303  1  0.54064366  0.00336706  0.97188920  1
  C  C304  1  0.54079226  0.00348835  0.03486196  1
  C  C305  1  0.53385345  0.01701930  0.97133352  1
  C  C306  1  0.53395329  0.01709345  0.03565664  1
  C  C307  1  0.53046813  0.02415698  0.93991661  1
  C  C308  1  0.53059061  0.02415405  0.06713459  1
  C  C309  1  0.54436138  0.99711880  0.00340774  1
  C  C310  1  0.53055163  0.02391856  0.00347508  1
  C  C311  1  0.49854150  0.07472303  0.87552002  1
  C  C312  1  0.49851426  0.07453361  0.13075984  1
  C  C313  1  0.48708873  0.06093486  0.89584066  1
  C  C314  1  0.48718775  0.06062719  0.11107333  1
  C  C315  1  0.49203304  0.05630533  0.92716135  1
  C  C316  1  0.49231757  0.05598453  0.07998135  1
  C  C317  1  0.50917591  0.06370511  0.93772025  1
  C  C318  1  0.50943567  0.06376963  0.06891413  1
  C  C319  1  0.52137209  0.07394960  0.91373342  1
  C  C320  1  0.52154387  0.07435728  0.09213079  1
  C  C321  1  0.51612638  0.07991893  0.88385389  1
  C  C322  1  0.51611349  0.08023971  0.12183223  1
  C  C323  1  0.52132736  0.49412367  0.47456655  1
  C  C324  1  0.51724537  0.47624060  0.47769037  1
  C  C325  1  0.51633812  0.46877194  0.51087498  1
  C  C326  1  0.51590748  0.47937924  0.53879536  1
  C  C327  1  0.52159509  0.49726521  0.53405691  1
  C  C328  1  0.49701809  0.52634647  0.53367442  1
  C  C329  1  0.47926539  0.51998733  0.53548546  1
  C  C330  1  0.47001731  0.51259266  0.50591181  1
  C  C331  1  0.47850298  0.51838031  0.47421693  1
  C  C332  1  0.49628630  0.52557794  0.47383666  1
  C  C333  1  0.53535750  0.57045721  0.47880741  1
  C  C334  1  0.54041300  0.58833598  0.48343828  1
  C  C335  1  0.55050975  0.59590513  0.51228158  1
  C  C336  1  0.55769899  0.58546700  0.53030749  1
  C  C337  1  0.55097307  0.56761298  0.52638757  1
  C  C338  1  0.56686034  0.53060087  0.52473067  1
  C  C339  1  0.58445905  0.53534147  0.52886916  1
  C  C340  1  0.59551884  0.54939285  0.50999880  1
  C  C341  1  0.58853719  0.55400771  0.48005319  1
  C  C342  1  0.57083293  0.54837683  0.47660773  1
  C  C343  1  0.12336601  0.44935298  0.29285305  1
  C  C344  1  0.12033952  0.43416298  0.31227546  1
  C  C345  1  0.13101611  0.43279780  0.34048501  1
  C  C346  1  0.12775876  0.41709713  0.35966542  1
  C  C347  1  0.13782008  0.41595827  0.38749590  1
  C  C348  1  0.15173637  0.43054693  0.39721493  1
  C  C349  1  0.15546872  0.44608580  0.37864227  1
  C  C350  1  0.14535415  0.44724949  0.35096826  1
  C  C351  1  0.15885266  0.41618409  0.44754554  1
  C  C352  1  0.17121587  0.42225832  0.47706269  1
  C  C353  1  0.18789007  0.42182571  0.47372240  1
  C  C354  1  0.19986794  0.42923545  0.50004895  1
  C  C355  1  0.19556540  0.43733667  0.52915522  1
  C  C356  1  0.17897051  0.43795592  0.53153951  1
  C  C357  1  0.16662446  0.43031187  0.50590153  1
  C  C358  1  0.14877253  0.43056151  0.50756310  1
  C  C359  1  0.19246226  0.41255498  0.44397351  1
  C  C360  1  0.20914012  0.44501316  0.55587854  1
  C  C361  1  0.21764278  0.42892928  0.49780330  1
  C  C362  1  0.24635652  0.44842026  0.49169303  1
  C  C363  1  0.25198962  0.43447140  0.49654493  1
  C  C364  1  0.26939817  0.43741029  0.49832800  1
  C  C365  1  0.28149831  0.45432160  0.49463733  1
  C  C366  1  0.27530429  0.46811195  0.48924365  1
  C  C367  1  0.25802311  0.46527295  0.48779295  1
  C  C368  1  0.30000437  0.45927850  0.49549250  1
  C  C369  1  0.31081654  0.45067540  0.50256786  1
  C  C370  1  0.17439101  0.44640219  0.56251442  1
  C  C371  1  0.15985313  0.43871686  0.61629257  1
  C  C372  1  0.16218548  0.45624689  0.62069407  1
  C  C373  1  0.15290807  0.46099232  0.64584981  1
  C  C374  1  0.14152948  0.44860781  0.66857948  1
  C  C375  1  0.13992562  0.43093210  0.66430641  1
  C  C376  1  0.14917281  0.42613737  0.63876623  1
  C  C377  1  0.13264971  0.45485040  0.69419758  1
  C  C378  1  0.12105755  0.44539325  0.71951888  1
  C  C379  1  0.44873619  0.12229673  0.29128947  1
  C  C380  1  0.46074939  0.13276735  0.31438291  1
  C  C381  1  0.45832227  0.14289293  0.34260094  1
  C  C382  1  0.47306541  0.15252008  0.36159759  1
  C  C383  1  0.47226521  0.16299103  0.38885371  1
  C  C384  1  0.45649712  0.16390769  0.39854497  1
  C  C385  1  0.44160727  0.15457214  0.38059681  1
  C  C386  1  0.44243125  0.14411607  0.35297797  1
  C  C387  1  0.47047037  0.18107916  0.44686729  1
  C  C388  1  0.46524246  0.18890684  0.47785125  1
  C  C389  1  0.46602655  0.20626739  0.47611282  1
  C  C390  1  0.45870195  0.21260392  0.50351517  1
  C  C391  1  0.45020757  0.20173333  0.53148628  1
  C  C392  1  0.44915562  0.18423896  0.53205298  1
  C  C393  1  0.45719361  0.17783262  0.50596008  1
  C  C394  1  0.45732185  0.15961912  0.50581263  1
  C  C395  1  0.47499426  0.21811391  0.44672401  1
  C  C396  1  0.44230596  0.20949027  0.55886598  1
  C  C397  1  0.45893173  0.23084586  0.50216945  1
  C  C398  1  0.44008782  0.24633155  0.49295008  1
  C  C399  1  0.45406242  0.26168426  0.49696740  1
  C  C400  1  0.45158768  0.27746061  0.49852857  1
  C  C401  1  0.43512756  0.27845230  0.49584891  1
  C  C402  1  0.42126241  0.26265968  0.49064420  1
  C  C403  1  0.42369738  0.24685143  0.48885432  1
  C  C404  1  0.43241836  0.29493438  0.49757601  1
  C  C405  1  0.44468143  0.31090932  0.50102753  1
  C  C406  1  0.43991302  0.17268521  0.56154491  1
  C  C407  1  0.44784314  0.16389389  0.61629462  1
  C  C408  1  0.43164036  0.15111439  0.62064125  1
  C  C409  1  0.42895347  0.13872260  0.64664800  1
  C  C410  1  0.44234787  0.13867244  0.66930303  1
  C  C411  1  0.45848058  0.15213057  0.66460248  1
  C  C412  1  0.46104010  0.16466259  0.63890767  1
  C  C413  1  0.44024785  0.12575084  0.69564971  1
  C  C414  1  0.45363425  0.12640265  0.71773168  1
  C  C415  1  0.94070402  0.60670183  0.71687012  1
  C  C416  1  0.93006832  0.59477102  0.69374224  1
  C  C417  1  0.92017694  0.59757369  0.66565133  1
  C  C418  1  0.91033537  0.58273278  0.64667906  1
  C  C419  1  0.90005361  0.58382289  0.61956318  1
  C  C420  1  0.89952793  0.59999653  0.60993308  1
  C  C421  1  0.90910338  0.61500264  0.62784675  1
  C  C422  1  0.91935951  0.61388341  0.65533493  1
  C  C423  1  0.88198275  0.58614607  0.56194413  1
  C  C424  1  0.87438920  0.59172372  0.53103932  1
  C  C425  1  0.85743445  0.59138170  0.53272587  1
  C  C426  1  0.85144906  0.59913700  0.50539690  1
  C  C427  1  0.86217338  0.60718214  0.47701808  1
  C  C428  1  0.87923090  0.60769901  0.47629534  1
  C  C429  1  0.88531472  0.59948301  0.50266926  1
  C  C430  1  0.90305845  0.59884816  0.50277641  1
  C  C431  1  0.84561270  0.58235664  0.56194222  1
  C  C432  1  0.85470815  0.61521163  0.44936073  1
  C  C433  1  0.83358911  0.59929414  0.50659060  1
  C  C434  1  0.81809816  0.61829541  0.51549569  1
  C  C435  1  0.80316353  0.60393739  0.51125467  1
  C  C436  1  0.78754035  0.60622013  0.50926286  1
  C  C437  1  0.78599080  0.62254500  0.51430036  1
  C  C438  1  0.80139904  0.63698117  0.51865256  1
  C  C439  1  0.81717146  0.63482511  0.51966158  1
  C  C440  1  0.76891570  0.62331453  0.51276165  1
  C  C441  1  0.75463575  0.60863719  0.51492817  1
  C  C442  1  0.89079107  0.61679225  0.44674361  1
  C  C443  1  0.89960739  0.60849828  0.39225207  1
  C  C444  1  0.91252673  0.62477419  0.38818059  1
  C  C445  1  0.92476624  0.62728831  0.36229835  1
  C  C446  1  0.92454202  0.61366053  0.33943053  1
  C  C447  1  0.91094457  0.59748892  0.34378240  1
  C  C448  1  0.89859602  0.59509146  0.36940567  1
  C  C449  1  0.93731261  0.61559603  0.31323140  1
  C  C450  1  0.93646018  0.60201139  0.29091852  1
  C  C451  1  0.60641868  0.93983891  0.71549504  1
  C  C452  1  0.62149802  0.94313276  0.69641326  1
  C  C453  1  0.62307238  0.93248302  0.66808875  1
  C  C454  1  0.63865235  0.93601317  0.64925049  1
  C  C455  1  0.64000108  0.92598438  0.62128053  1
  C  C456  1  0.62575475  0.91183311  0.61112202  1
  C  C457  1  0.61034064  0.90782457  0.62935692  1
  C  C458  1  0.60895972  0.91791636  0.65715608  1
  C  C459  1  0.64018473  0.90505684  0.56074546  1
  C  C460  1  0.63432942  0.89247851  0.53121579  1
  C  C461  1  0.63478082  0.87552739  0.53461341  1
  C  C462  1  0.62706937  0.86308522  0.50890387  1
  C  C463  1  0.61930648  0.86760815  0.47965186  1
  C  C464  1  0.61861553  0.88444738  0.47728948  1
  C  C465  1  0.62618771  0.89708781  0.50269203  1
  C  C466  1  0.62577711  0.91518030  0.50109684  1
  C  C467  1  0.64435495  0.87127829  0.56402609  1
  C  C468  1  0.61200949  0.85395069  0.45257173  1
  C  C469  1  0.62721355  0.84490405  0.51109146  1
  C  C470  1  0.60832736  0.81534834  0.51674249  1
  C  C471  1  0.62232743  0.81007366  0.51227052  1
  C  C472  1  0.61989654  0.79250203  0.51045525  1
  C  C473  1  0.60353865  0.77955813  0.51408983  1
  C  C474  1  0.58961869  0.78532417  0.51937249  1
  C  C475  1  0.59194206  0.80289570  0.52064973  1
  C  C476  1  0.60122250  0.76122339  0.51112373  1
  C  C477  1  0.61417254  0.75516293  0.50544775  1
  C  C478  1  0.61015847  0.88897373  0.44644679  1
  C  C479  1  0.61744168  0.90332200  0.39231275  1
  C  C480  1  0.60012849  0.90075126  0.38808890  1
  C  C481  1  0.59527634  0.90995605  0.36280912  1
  C  C482  1  0.60736051  0.92151073  0.33989323  1
  C  C483  1  0.62482438  0.92338439  0.34405727  1
  C  C484  1  0.62971835  0.91418167  0.36967149  1
  C  C485  1  0.60111078  0.93032593  0.31416088  1
  C  C486  1  0.61041294  0.94201355  0.28871190  1
  C  C487  1  0.45486659  0.49561445  0.50904719  1
  C  C488  1  0.43655869  0.49446890  0.50378055  1
  C  C489  1  0.42764068  0.50066862  0.52844495  1
  C  C490  1  0.40990437  0.49393502  0.53017351  1
  C  C491  1  0.40046070  0.48145888  0.50601159  1
  C  C492  1  0.40941380  0.47695957  0.47901921  1
  C  C493  1  0.42710839  0.48394708  0.47727891  1
  C  C494  1  0.32895675  0.46266881  0.50642672  1
  C  C495  1  0.34571228  0.45915135  0.50852923  1
  C  C496  1  0.35484647  0.46212958  0.53974605  1
  C  C497  1  0.37256649  0.46957380  0.53947330  1
  C  C498  1  0.38171970  0.47281202  0.50786009  1
  C  C499  1  0.37253896  0.46716909  0.47702030  1
  C  C500  1  0.35485439  0.45946090  0.47779875  1
  C  C501  1  0.51979234  0.45210456  0.51760139  1
  C  C502  1  0.50675296  0.43439098  0.50998246  1
  C  C503  1  0.49002759  0.42864549  0.52366453  1
  C  C504  1  0.47987971  0.41112055  0.52365526  1
  C  C505  1  0.48576629  0.39860307  0.50885606  1
  C  C506  1  0.50221572  0.40453097  0.49403639  1
  C  C507  1  0.51236598  0.42199849  0.49454603  1
  C  C508  1  0.44013586  0.32673959  0.49584594  1
  C  C509  1  0.45365584  0.34444627  0.50294440  1
  C  C510  1  0.45251919  0.35456111  0.53137381  1
  C  C511  1  0.46297969  0.37192229  0.53385660  1
  C  C512  1  0.47527703  0.37987843  0.50808154  1
  C  C513  1  0.47730047  0.36931358  0.48098216  1
  C  C514  1  0.46677028  0.35198233  0.47868049  1
  C  C515  1  0.61156537  0.56144479  0.52785125  1
  C  C516  1  0.62970053  0.56623559  0.51359635  1
  C  C517  1  0.63905297  0.55510735  0.51722850  1
  C  C518  1  0.65686639  0.56144245  0.51610309  1
  C  C519  1  0.66618740  0.57913709  0.50951313  1
  C  C520  1  0.65666287  0.58985076  0.50261300  1
  C  C521  1  0.63887269  0.58337272  0.50358562  1
  C  C522  1  0.74011090  0.60396226  0.48955460  1
  C  C523  1  0.72166008  0.59972119  0.50192847  1
  C  C524  1  0.71333992  0.58636766  0.52580236  1
  C  C525  1  0.69554238  0.57978226  0.52896149  1
  C  C526  1  0.68518445  0.58646932  0.50891477  1
  C  C527  1  0.69368708  0.60082033  0.48748818  1
  C  C528  1  0.71143724  0.60743394  0.48479204  1
  C  C529  1  0.55027480  0.61217070  0.53027048  1
  C  C530  1  0.55898132  0.63017875  0.51574430  1
  C  C531  1  0.57559743  0.63613893  0.50151517  1
  C  C532  1  0.58511056  0.65382109  0.49983316  1
  C  C533  1  0.57809569  0.66622346  0.51087699  1
  C  C534  1  0.56121933  0.66017415  0.52344788  1
  C  C535  1  0.55181054  0.64254965  0.52490799  1
  C  C536  1  0.61295178  0.73974661  0.48291221  1
  C  C537  1  0.60421249  0.72131135  0.49716251  1
  C  C538  1  0.61344475  0.71055213  0.50564525  1
  C  C539  1  0.60525630  0.69279338  0.51101323  1
  C  C540  1  0.58736980  0.68516528  0.50884556  1
  C  C541  1  0.57806286  0.69625119  0.50370978  1
  C  C542  1  0.58637008  0.71395509  0.49823692  1
  C  C543  1  0.08296854  0.49310079  0.85015341  1
  C  C544  1  0.08908880  0.48555177  0.82927670  1
  C  C545  1  0.09552493  0.47722278  0.80703851  1
  C  C546  1  0.10155171  0.46941425  0.78621224  1
  C  C547  1  0.10797927  0.46109960  0.76399685  1
  C  C548  1  0.11416073  0.45360653  0.74288699  1
  C  C549  1  0.49203649  0.08201859  0.84873491  1
  C  C550  1  0.48425728  0.08783769  0.82786587  1
  C  C551  1  0.47552731  0.09387311  0.80588905  1
  C  C552  1  0.46733038  0.09952211  0.78530121  1
  C  C553  1  0.45948371  0.10618173  0.76270845  1
  C  C554  1  0.45366726  0.11374060  0.74077487  1
  C  C555  1  0.97806855  0.56192761  0.15788401  1
  C  C556  1  0.97266895  0.56992640  0.17917988  1
  C  C557  1  0.96726484  0.57900646  0.20168300  1
  C  C558  1  0.96221240  0.58754012  0.22276191  1
  C  C559  1  0.95605509  0.59570196  0.24572992  1
  C  C560  1  0.94887733  0.60179677  0.26788565  1
  C  C561  1  0.56293024  0.97991615  0.15794875  1
  C  C562  1  0.57032108  0.97379923  0.17905445  1
  C  C563  1  0.57864740  0.96739519  0.20126937  1
  C  C564  1  0.58645059  0.96140598  0.22204521  1
  C  C565  1  0.59476607  0.95501997  0.24420627  1
  C  C566  1  0.60227195  0.94888884  0.26528005  1
  C  C567  1  0.49194310  0.08170720  0.15754789  1
  C  C568  1  0.48448228  0.08787566  0.17842104  1
  C  C569  1  0.47615429  0.09439058  0.20043869  1
  C  C570  1  0.46835961  0.10048951  0.22103709  1
  C  C571  1  0.46014627  0.10704991  0.24317894  1
  C  C572  1  0.45393109  0.11393784  0.26546536  1
  C  C573  1  0.08393426  0.49238754  0.15794177  1
  C  C574  1  0.08946759  0.48451122  0.17933822  1
  C  C575  1  0.09505582  0.47558916  0.20199701  1
  C  C576  1  0.10028730  0.46721708  0.22321683  1
  C  C577  1  0.10619323  0.45875205  0.24617193  1
  C  C578  1  0.11269543  0.45197051  0.26829730  1
  C  C579  1  0.97928215  0.56136206  0.85051459  1
  C  C580  1  0.97339334  0.56919799  0.82981035  1
  C  C581  1  0.96727477  0.57792890  0.80783702  1
  C  C582  1  0.96154459  0.58610880  0.78726424  1
  C  C583  1  0.95531930  0.59459715  0.76496969  1
  C  C584  1  0.94869843  0.60101140  0.74255605  1
  C  C585  1  0.56316925  0.97993011  0.84856382  1
  C  C586  1  0.57108499  0.97432863  0.82750022  1
  C  C587  1  0.58000813  0.96856099  0.80532540  1
  C  C588  1  0.58837820  0.96316440  0.78456148  1
  C  C589  1  0.59684998  0.95714126  0.76196263  1
  C  C590  1  0.60364486  0.95055891  0.74004173  1
  S  S591  1  0.53385170  0.53363620  0.44121305  1
  S  S592  1  0.53525949  0.53466254  0.56444475  1
  N  N593  1  0.52501117  0.50477037  0.50230954  1
  N  N594  1  0.50568814  0.52866084  0.50320606  1
  N  N595  1  0.53954613  0.56007570  0.50139508  1
  N  N596  1  0.55993383  0.53713376  0.49913442  1
  O  O597  1  0.16269662  0.43075706  0.42331632  1
  O  O598  1  0.16799971  0.43362114  0.59026820  1
  O  O599  1  0.22953486  0.44643391  0.49077280  1
  O  O600  1  0.45524869  0.17397575  0.42537639  1
  O  O601  1  0.45142260  0.17623119  0.59098003  1
  O  O602  1  0.44195297  0.23058306  0.49297873  1
  O  O603  1  0.88964728  0.60157259  0.58327501  1
  O  O604  1  0.88737753  0.60503771  0.41739948  1
  O  O605  1  0.83370734  0.61658390  0.51535209  1
  O  O606  1  0.62579365  0.90083718  0.58493234  1
  O  O607  1  0.62261252  0.89523844  0.41842192  1
  O  O608  1  0.60997946  0.83239693  0.51728131  1
