# generated using pymatgen
data_NaH110(C23O2)7
_symmetry_space_group_name_H-M   'P 1'
_cell_length_a   47.27508873
_cell_length_b   60.33199494
_cell_length_c   33.72681143
_cell_angle_alpha   89.11969432
_cell_angle_beta   91.99815283
_cell_angle_gamma   90.71258840
_symmetry_Int_Tables_number   1
_chemical_formula_structural   NaH110(C23O2)7
_chemical_formula_sum   'Na2 H220 C322 O28'
_cell_volume   96118.96964282
_cell_formula_units_Z   2
loop_
 _symmetry_equiv_pos_site_id
 _symmetry_equiv_pos_as_xyz
  1  'x, y, z'
loop_
 _atom_site_type_symbol
 _atom_site_label
 _atom_site_symmetry_multiplicity
 _atom_site_fract_x
 _atom_site_fract_y
 _atom_site_fract_z
 _atom_site_occupancy
  Na  Na0  1  0.53929805  0.50294335  0.54181444  1
  Na  Na1  1  0.46279346  0.50083248  0.55322784  1
  H  H2  1  0.02443062  0.96972913  0.11210327  1
  H  H3  1  0.03344210  0.92978926  0.11160845  1
  H  H4  1  0.03108459  0.93108612  0.98428590  1
  H  H5  1  0.02176341  0.97099172  0.98401099  1
  H  H6  1  0.03943837  0.01745447  0.11407850  1
  H  H7  1  0.07920163  0.04417627  0.11659650  1
  H  H8  1  0.03993042  0.01947531  0.98606687  1
  H  H9  1  0.97777521  0.03394739  0.98178455  1
  H  H10  1  0.96886309  0.07389147  0.98187988  1
  H  H11  1  0.97127526  0.07301739  0.10921903  1
  H  H12  1  0.98034420  0.03309091  0.10987511  1
  H  H13  1  0.96198879  0.98591790  0.98008924  1
  H  H14  1  0.92208666  0.95937582  0.97774704  1
  H  H15  1  0.92156649  0.95768868  0.10513957  1
  H  H16  1  0.96171680  0.98401078  0.10799945  1
  H  H17  1  0.07995236  0.04596058  0.98915624  1
  H  H18  1  0.45622068  0.32428626  0.32955158  1
  H  H19  1  0.51828221  0.31177329  0.31596184  1
  H  H20  1  0.52304591  0.28315088  0.26276237  1
  H  H21  1  0.50399193  0.26458215  0.20306912  1
  H  H22  1  0.42390905  0.29692957  0.21546487  1
  H  H23  1  0.44355392  0.31714381  0.27338978  1
  H  H24  1  0.47760312  0.24421643  0.16203189  1
  H  H25  1  0.48762284  0.26949122  0.13859182  1
  H  H26  1  0.46511331  0.29762392  0.04988951  1
  H  H27  1  0.49215747  0.28211772  0.07402325  1
  H  H28  1  0.46745428  0.29641298  0.10217989  1
  H  H29  1  0.44184398  0.22756578  0.17553453  1
  H  H30  1  0.44870706  0.20455818  0.14539049  1
  H  H31  1  0.41353410  0.21185671  0.15524405  1
  H  H32  1  0.39396785  0.24658820  0.98686612  1
  H  H33  1  0.37244153  0.23392883  0.02305871  1
  H  H34  1  0.39874502  0.21858269  1.00019937  1
  H  H35  1  0.39598722  0.19881254  0.05284388  1
  H  H36  1  0.40416784  0.19595592  0.10446998  1
  H  H37  1  0.37579223  0.17153045  0.08263895  1
  H  H38  1  0.33686688  0.14480432  0.07496733  1
  H  H39  1  0.27657881  0.19721680  0.08989141  1
  H  H40  1  0.31633618  0.22453639  0.09554991  1
  H  H41  1  0.25918637  0.16011975  0.08020822  1
  H  H42  1  0.30273455  0.12252776  0.06916172  1
  H  H43  1  0.40713091  0.27682260  0.99723660  1
  H  H44  1  0.43803164  0.29205489  0.01047069  1
  H  H45  1  0.41276499  0.30018696  0.95471498  1
  H  H46  1  0.42281188  0.32610593  0.90003162  1
  H  H47  1  0.48995967  0.28374771  0.86333052  1
  H  H48  1  0.48025837  0.25804647  0.91934892  1
  H  H49  1  0.44842121  0.33756170  0.84537785  1
  H  H50  1  0.49721034  0.30876828  0.81538881  1
  H  H51  1  0.78439518  0.45691543  0.77950274  1
  H  H52  1  0.73350449  0.42674306  0.80218394  1
  H  H53  1  0.73302902  0.40413555  0.85539686  1
  H  H54  1  0.75401426  0.38733571  0.91601780  1
  H  H55  1  0.83176346  0.42373713  0.89738988  1
  H  H56  1  0.81054908  0.44102658  0.83645638  1
  H  H57  1  0.77947558  0.37008773  0.95689380  1
  H  H58  1  0.76913603  0.39514535  0.97860115  1
  H  H59  1  0.78990544  0.42258348  0.06787638  1
  H  H60  1  0.76369003  0.40650711  0.04284683  1
  H  H61  1  0.78859144  0.42203712  0.01548416  1
  H  H62  1  0.81360418  0.35395263  0.94407479  1
  H  H63  1  0.80621374  0.33104035  0.97558430  1
  H  H64  1  0.84151407  0.33824641  0.96454130  1
  H  H65  1  0.86277225  0.37306073  0.13173512  1
  H  H66  1  0.88395484  0.36083826  0.09562810  1
  H  H67  1  0.85752254  0.34505416  0.11916526  1
  H  H68  1  0.86000087  0.32573759  0.06632025  1
  H  H69  1  0.85220084  0.32412540  0.01445740  1
  H  H70  1  0.87567929  0.29962444  0.03271374  1
  H  H71  1  0.90969162  0.27030917  0.03173199  1
  H  H72  1  0.97817493  0.31893940  0.02818824  1
  H  H73  1  0.94256248  0.34874632  0.02319723  1
  H  H74  1  0.98824427  0.27537889  0.03252069  1
  H  H75  1  0.93390757  0.25175202  0.06089492  1
  H  H76  1  0.84968919  0.40414707  0.12043941  1
  H  H77  1  0.81880282  0.41864739  0.10568295  1
  H  H78  1  0.84141388  0.42897546  0.16848654  1
  H  H79  1  0.82855472  0.45166493  0.22468466  1
  H  H80  1  0.76093748  0.40519652  0.25071196  1
  H  H81  1  0.77595359  0.38157462  0.19653219  1
  H  H82  1  0.79214290  0.46135583  0.27631621  1
  H  H83  1  0.75982508  0.41962742  0.30437938  1
  H  H84  1  0.21600060  0.55196417  0.79534368  1
  H  H85  1  0.26712627  0.58058892  0.82538882  1
  H  H86  1  0.26767107  0.60176894  0.87888751  1
  H  H87  1  0.24690217  0.61749987  0.93755786  1
  H  H88  1  0.16832651  0.58297211  0.90997243  1
  H  H89  1  0.18922265  0.56689680  0.85077615  1
  H  H90  1  0.22141158  0.63491980  0.97481227  1
  H  H91  1  0.23186136  0.60951875  -0.00241389  1
  H  H92  1  0.21198339  0.58053358  0.08501432  1
  H  H93  1  0.23853669  0.59745522  0.06438589  1
  H  H94  1  0.21445065  0.58257238  0.03303595  1
  H  H95  1  0.18829600  0.65265255  0.96085936  1
  H  H96  1  0.19534157  0.67459679  0.99413953  1
  H  H97  1  0.16013772  0.66751982  0.97933746  1
  H  H98  1  0.14073024  0.62901161  0.14430956  1
  H  H99  1  0.11911914  0.64220215  0.10700875  1
  H  H100  1  0.14599403  0.65727642  0.13282196  1
  H  H101  1  0.14222717  0.67735448  0.08019152  1
  H  H102  1  0.15031229  0.68084318  0.02933171  1
  H  H103  1  0.12641245  0.70460754  0.04790205  1
  H  H104  1  0.09228400  0.73388597  0.04408309  1
  H  H105  1  0.02436559  0.68547082  0.02652048  1
  H  H106  1  0.06021072  0.65589847  0.02495114  1
  H  H107  1  0.01402437  0.72883681  0.03152912  1
  H  H108  1  0.06681248  0.75143146  0.07065532  1
  H  H109  1  0.15390431  0.59823954  0.13350147  1
  H  H110  1  0.18523898  0.58450667  0.12185774  1
  H  H111  1  0.16300531  0.57311910  0.17961329  1
  H  H112  1  0.17635897  0.54854092  0.23569215  1
  H  H113  1  0.24348147  0.59451716  0.27036908  1
  H  H114  1  0.22768431  0.62016483  0.21642778  1
  H  H115  1  0.21318095  0.53797170  0.29120516  1
  H  H116  1  0.24106130  0.58016459  0.32576474  1
  H  H117  1  0.50667065  0.69219906  0.76611995  1
  H  H118  1  0.55090035  0.65589030  0.78916792  1
  H  H119  1  0.58122993  0.65960483  0.84508329  1
  H  H120  1  0.59867051  0.67945046  0.90432765  1
  H  H121  1  0.53845983  0.73150426  0.87877372  1
  H  H122  1  0.52080547  0.71153465  0.81900125  1
  H  H123  1  0.61685912  0.70438447  0.94155700  1
  H  H124  1  0.58845591  0.69040728  0.96454878  1
  H  H125  1  0.54796664  0.70014928  0.04859150  1
  H  H126  1  0.57425557  0.68368494  0.02838700  1
  H  H127  1  0.55034774  0.69853606  0.99667434  1
  H  H128  1  0.63016721  0.73464858  0.92759160  1
  H  H129  1  0.65981496  0.73510124  0.96112328  1
  H  H130  1  0.64273601  0.76000885  0.94642671  1
  H  H131  1  0.59367345  0.76640630  0.11047242  1
  H  H132  1  0.60433197  0.78620380  0.07411371  1
  H  H133  1  0.62962693  0.76957519  0.09974431  1
  H  H134  1  0.65322412  0.77684016  0.04829893  1
  H  H135  1  0.65847562  0.77162366  0.99731761  1
  H  H136  1  0.68300793  0.79672363  0.01921319  1
  H  H137  1  0.71058047  0.83052601  0.02214412  1
  H  H138  1  0.63437176  0.86888415  0.99935190  1
  H  H139  1  0.60661420  0.83381612  0.99506324  1
  H  H140  1  0.68363435  0.88869475  0.00942489  1
  H  H141  1  0.72909233  0.85492274  0.03876868  1
  H  H142  1  0.55771275  0.74960717  0.09685954  1
  H  H143  1  0.54791492  0.72192641  0.08612614  1
  H  H144  1  0.52996295  0.73765978  0.14014706  1
  H  H145  1  0.50217215  0.72231449  0.19455966  1
  H  H146  1  0.57405989  0.68272457  0.23392084  1
  H  H147  1  0.60238444  0.69990708  0.18134904  1
  H  H148  1  0.49736134  0.69448822  0.25175119  1
  H  H149  1  0.55595385  0.67976249  0.28527834  1
  H  H150  1  0.17674137  0.04695875  0.04173601  1
  H  H151  1  0.22816803  0.06482798  0.04695280  1
  H  H152  1  0.20350753  0.10543211  0.12818575  1
  H  H153  1  0.15207101  0.08810035  0.12390083  1
  H  H154  1  0.14634630  0.10193407  0.00743284  1
  H  H155  1  0.19757572  0.11995265  0.01106055  1
  H  H156  1  0.01490399  0.14497696  0.06322622  1
  H  H157  1  0.01445267  0.18883246  0.06443120  1
  H  H158  1  0.94285552  0.18860280  0.09710092  1
  H  H159  1  0.94110425  0.14483818  0.09782538  1
  H  H160  1  0.95273392  0.14452508  0.98025730  1
  H  H161  1  0.95254873  0.18810802  0.97879399  1
  H  H162  1  0.99881202  0.85818058  0.09106057  1
  H  H163  1  0.99878282  0.81441874  0.09012566  1
  H  H164  1  0.07289722  0.81507489  0.08402909  1
  H  H165  1  0.07374179  0.85887161  0.08416392  1
  H  H166  1  0.02949806  0.86000979  0.97951239  1
  H  H167  1  0.02891751  0.81656979  0.97859516  1
  H  H168  1  0.84857915  0.91652333  0.96999477  1
  H  H169  1  0.79730197  0.89895933  0.96519275  1
  H  H170  1  0.77318180  0.93783601  0.05345225  1
  H  H171  1  0.82437796  0.95610458  0.05664337  1
  H  H172  1  0.85441453  0.90077261  0.08511084  1
  H  H173  1  0.80263680  0.88362684  0.08142380  1
  H  H174  1  0.51633353  0.40032901  0.77731494  1
  H  H175  1  0.53184674  0.40314802  0.69775942  1
  H  H176  1  0.46705228  0.42416245  0.75854796  1
  H  H177  1  0.43728954  0.38464132  0.74234846  1
  H  H178  1  0.50232958  0.36323237  0.68161189  1
  H  H179  1  0.45289352  0.38714198  0.66279698  1
  H  H180  1  0.70657372  0.47005879  0.64162014  1
  H  H181  1  0.66246807  0.43852147  0.64151501  1
  H  H182  1  0.66869399  0.50360397  0.65956547  1
  H  H183  1  0.67841516  0.49548204  0.74104014  1
  H  H184  1  0.67216554  0.43045061  0.72282945  1
  H  H185  1  0.63431045  0.46390506  0.74088265  1
  H  H186  1  0.67943748  0.42712538  0.36461176  1
  H  H187  1  0.67725596  0.44258474  0.44236444  1
  H  H188  1  0.63719350  0.45680595  0.33934579  1
  H  H189  1  0.67835771  0.48934708  0.32333588  1
  H  H190  1  0.71837507  0.47506333  0.42625343  1
  H  H191  1  0.67620257  0.50485293  0.40116463  1
  H  H192  1  0.33454878  0.56683007  0.35438438  1
  H  H193  1  0.34455003  0.57090314  0.43643413  1
  H  H194  1  0.36628490  0.52781463  0.35474235  1
  H  H195  1  0.31734519  0.50247762  0.36941868  1
  H  H196  1  0.29577875  0.54562973  0.45097328  1
  H  H197  1  0.32729685  0.50661705  0.45155960  1
  H  H198  1  0.33374994  0.53220595  0.78198345  1
  H  H199  1  0.33968982  0.50036039  0.72331623  1
  H  H200  1  0.36293149  0.56365013  0.73648303  1
  H  H201  1  0.31213824  0.57705290  0.69870212  1
  H  H202  1  0.28882982  0.51378013  0.68558093  1
  H  H203  1  0.31805448  0.54521401  0.63999012  1
  H  H204  1  0.55236962  0.63732129  0.39825931  1
  H  H205  1  0.50825446  0.62059061  0.44402029  1
  H  H206  1  0.56381330  0.59446869  0.37227191  1
  H  H207  1  0.52527631  0.60002744  0.30773626  1
  H  H208  1  0.46976681  0.62610032  0.37922975  1
  H  H209  1  0.48125470  0.58302726  0.35392274  1
  H  H210  1  0.47847838  0.36585509  0.46263402  1
  H  H211  1  0.52407198  0.39511382  0.47885926  1
  H  H212  1  0.44364518  0.40193042  0.44167395  1
  H  H213  1  0.46007285  0.39967981  0.36255080  1
  H  H214  1  0.54040744  0.39283293  0.39962152  1
  H  H215  1  0.50556179  0.42897973  0.37950231  1
  H  H216  1  0.54591694  0.60651557  0.72765029  1
  H  H217  1  0.50182456  0.57513425  0.71816593  1
  H  H218  1  0.55719137  0.60362321  0.64669325  1
  H  H219  1  0.51863510  0.63780115  0.62854026  1
  H  H220  1  0.46332112  0.60929436  0.70093339  1
  H  H221  1  0.47444254  0.60631907  0.61978358  1
  C  C222  1  0.98703368  0.00554578  0.04596684  1
  C  C223  1  0.01435304  0.99814739  0.04807988  1
  C  C224  1  0.02128562  0.97372745  0.04808032  1
  C  C225  1  0.03841426  0.01471994  0.04990217  1
  C  C226  1  0.98034419  0.03003245  0.04583833  1
  C  C227  1  0.96298230  0.98893789  0.04420186  1
  C  C228  1  0.02537352  0.96143241  0.08369368  1
  C  C229  1  0.03002873  0.93874576  0.08354823  1
  C  C230  1  0.03043862  0.92663845  0.04786331  1
  C  C231  1  0.02867304  0.93949029  0.01235003  1
  C  C232  1  0.02385190  0.96213831  0.01236320  1
  C  C233  1  0.04891638  0.02293264  0.08655396  1
  C  C234  1  0.07110791  0.03804677  0.08809194  1
  C  C235  1  0.08404775  0.04584755  0.05320287  1
  C  C236  1  0.07153509  0.03909172  0.01648128  1
  C  C237  1  0.04922497  0.02406146  0.01485725  1
  C  C238  1  0.97663918  0.04229248  0.01012298  1
  C  C239  1  0.97209811  0.06500001  0.01004017  1
  C  C240  1  0.97159646  0.07725502  0.04554415  1
  C  C241  1  0.97347314  0.06451627  0.08120096  1
  C  C242  1  0.97812699  0.04182104  0.08141211  1
  C  C243  1  0.95244628  0.98060188  0.00766763  1
  C  C244  1  0.93013284  0.96555454  0.00624026  1
  C  C245  1  0.91705555  0.95787456  0.04112448  1
  C  C246  1  0.92983660  0.96456617  0.07772867  1
  C  C247  1  0.95226637  0.97952858  0.07924213  1
  C  C248  1  0.50602018  0.52569314  0.61233118  1
  C  C249  1  0.43907035  0.52217380  0.64081100  1
  C  C250  1  0.48228073  0.47065223  0.63387593  1
  C  C251  1  0.56204557  0.47464494  0.62923074  1
  C  C252  1  0.49683315  0.47778852  0.48362172  1
  C  C253  1  0.56472365  0.48163363  0.45469355  1
  C  C254  1  0.51985870  0.53353780  0.46287433  1
  C  C255  1  0.43888819  0.52885290  0.46623491  1
  C  C256  1  0.47926353  0.32655280  0.32974827  1
  C  C257  1  0.49592689  0.31325438  0.30736527  1
  C  C258  1  0.48484811  0.30143495  0.27348149  1
  C  C259  1  0.50140179  0.28647645  0.25227975  1
  C  C260  1  0.49071826  0.27611276  0.21839955  1
  C  C261  1  0.46296862  0.28034627  0.20469043  1
  C  C262  1  0.44573939  0.29427978  0.22583135  1
  C  C263  1  0.45668235  0.30514443  0.25905451  1
  C  C264  1  0.46933713  0.25885496  0.14570481  1
  C  C265  1  0.45164096  0.25237513  0.10972319  1
  C  C266  1  0.43405068  0.23334727  0.11228618  1
  C  C267  1  0.41655101  0.22770176  0.07917104  1
  C  C268  1  0.41494436  0.24147090  0.04487037  1
  C  C269  1  0.43212026  0.26077611  0.04337543  1
  C  C270  1  0.45081150  0.26630677  0.07548290  1
  C  C271  1  0.46964427  0.28655852  0.07524910  1
  C  C272  1  0.43453178  0.21876021  0.14882978  1
  C  C273  1  0.39414584  0.23500627  0.01216043  1
  C  C274  1  0.39736996  0.20781189  0.08107830  1
  C  C275  1  0.34825269  0.19984102  0.08792705  1
  C  C276  1  0.35409508  0.17738734  0.08311750  1
  C  C277  1  0.33201213  0.16217273  0.07958540  1
  C  C278  1  0.30346371  0.16889570  0.08169338  1
  C  C279  1  0.29835208  0.19175366  0.08791909  1
  C  C280  1  0.32040826  0.20701108  0.09106130  1
  C  C281  1  0.28039253  0.15343828  0.07794590  1
  C  C282  1  0.28246640  0.13080006  0.07167020  1
  C  C283  1  0.42958036  0.27513528  0.00671144  1
  C  C284  1  0.44764074  0.27847085  0.94228797  1
  C  C285  1  0.43047377  0.29701560  0.93583126  1
  C  C286  1  0.43559068  0.31128963  0.90438713  1
  C  C287  1  0.45743068  0.30732474  0.87772511  1
  C  C288  1  0.47329227  0.28759362  0.88357137  1
  C  C289  1  0.46803419  0.27316086  0.91506041  1
  C  C290  1  0.46223799  0.32320458  0.84647050  1
  C  C291  1  0.48256548  0.32249642  0.81797886  1
  C  C292  1  0.76328294  0.44944125  0.77994520  1
  C  C293  1  0.75492641  0.43333963  0.80697126  1
  C  C294  1  0.76967866  0.42419750  0.84140119  1
  C  C295  1  0.75461103  0.40862843  0.86476377  1
  C  C296  1  0.76634503  0.39936061  0.89918634  1
  C  C297  1  0.79382447  0.40544212  0.91159502  1
  C  C298  1  0.80994294  0.41984703  0.88816865  1
  C  C299  1  0.79798204  0.42939696  0.85379408  1
  C  C300  1  0.78755083  0.38491118  0.97249316  1
  C  C301  1  0.80487381  0.37865083  0.00902012  1
  C  C302  1  0.82222079  0.35989715  0.00694191  1
  C  C303  1  0.84019158  0.35482698  0.03996268  1
  C  C304  1  0.84153624  0.36821621  0.07411960  1
  C  C305  1  0.82431655  0.38716394  0.07548213  1
  C  C306  1  0.80548011  0.39221496  0.04310261  1
  C  C307  1  0.78611758  0.41176831  0.04247182  1
  C  C308  1  0.82087690  0.34519636  0.97120651  1
  C  C309  1  0.86234690  0.36165688  0.10680076  1
  C  C310  1  0.85927811  0.33535040  0.03822336  1
  C  C311  1  0.90709823  0.32622859  0.02984155  1
  C  C312  1  0.89807658  0.30411856  0.03224091  1
  C  C313  1  0.91770430  0.28731677  0.03317323  1
  C  C314  1  0.94717027  0.29194742  0.03347875  1
  C  C315  1  0.95573407  0.31463767  0.02924805  1
  C  C316  1  0.93589963  0.33146510  0.02686173  1
  C  C317  1  0.96557877  0.27324297  0.03638227  1
  C  C318  1  0.95412310  0.25262996  0.04584066  1
  C  C319  1  0.82719439  0.40194966  0.11126289  1
  C  C320  1  0.80755777  0.40480677  0.17655941  1
  C  C321  1  0.82321194  0.42406095  0.18574773  1
  C  C322  1  0.81607722  0.43677569  0.21789474  1
  C  C323  1  0.79295842  0.43087722  0.24192885  1
  C  C324  1  0.77889390  0.41048529  0.23338138  1
  C  C325  1  0.78677848  0.39734285  0.20217564  1
  C  C326  1  0.78297118  0.44479443  0.27284663  1
  C  C327  1  0.76265146  0.43746689  0.29872775  1
  C  C328  1  0.23734311  0.55893178  0.79876731  1
  C  C329  1  0.24555573  0.57415800  0.82739348  1
  C  C330  1  0.23063478  0.58268502  0.86044052  1
  C  C331  1  0.24593832  0.59741681  0.88579875  1
  C  C332  1  0.23430648  0.60611180  0.91917917  1
  C  C333  1  0.20664057  0.60029453  0.92862274  1
  C  C334  1  0.19028949  0.58669689  0.90317804  1
  C  C335  1  0.20212070  0.57778379  0.86976230  1
  C  C336  1  0.21342724  0.61989752  0.98990634  1
  C  C337  1  0.19672169  0.62569670  0.02528395  1
  C  C338  1  0.17969890  0.64473255  0.02255710  1
  C  C339  1  0.16219329  0.64921093  0.05439813  1
  C  C340  1  0.16121229  0.63514478  0.08826961  1
  C  C341  1  0.17847731  0.61617652  0.09053899  1
  C  C342  1  0.19669380  0.61156956  0.05934748  1
  C  C343  1  0.21621423  0.59210102  0.06059952  1
  C  C344  1  0.18087991  0.66049603  0.98762179  1
  C  C345  1  0.14089054  0.64101776  0.11966648  1
  C  C346  1  0.14313262  0.66877393  0.05163121  1
  C  C347  1  0.09532364  0.67813688  0.03831205  1
  C  C348  1  0.10410945  0.70011505  0.04373805  1
  C  C349  1  0.08438105  0.71684432  0.04294722  1
  C  C350  1  0.05500621  0.71221966  0.03826550  1
  C  C351  1  0.04670650  0.68972010  0.03127922  1
  C  C352  1  0.06666639  0.67301143  0.03079872  1
  C  C353  1  0.03648226  0.73081778  0.03923312  1
  C  C354  1  0.04747707  0.75108951  0.05164977  1
  C  C355  1  0.17628911  0.60096517  0.12624270  1
  C  C356  1  0.19627614  0.59734290  0.19258358  1
  C  C357  1  0.18107408  0.57758486  0.19898701  1
  C  C358  1  0.18839526  0.56385831  0.23106325  1
  C  C359  1  0.21120021  0.56936874  0.25779838  1
  C  C360  1  0.22523585  0.59000887  0.25145329  1
  C  C361  1  0.21706859  0.60416346  0.22034336  1
  C  C362  1  0.22129106  0.55494627  0.28948581  1
  C  C363  1  0.24045088  0.56252124  0.31831341  1
  C  C364  1  0.51833135  0.67671105  0.76660871  1
  C  C365  1  0.54003783  0.67146292  0.79372374  1
  C  C366  1  0.54959331  0.68384361  0.82755799  1
  C  C367  1  0.57178198  0.67532974  0.85254549  1
  C  C368  1  0.58135609  0.68639095  0.88611263  1
  C  C369  1  0.56880019  0.70637001  0.89589603  1
  C  C370  1  0.54749586  0.71563865  0.87120295  1
  C  C371  1  0.53778344  0.70445994  0.83765160  1
  C  C372  1  0.59690960  0.70692846  0.95668710  1
  C  C373  1  0.60083264  0.72180651  0.99173942  1
  C  C374  1  0.62005109  0.73983578  0.98919951  1
  C  C375  1  0.62211988  0.75480636  0.02092348  1
  C  C376  1  0.60481992  0.75236512  0.05409746  1
  C  C377  1  0.58497896  0.73467127  0.05527614  1
  C  C378  1  0.58314195  0.71898719  0.02455620  1
  C  C379  1  0.56296725  0.69952057  0.02468436  1
  C  C380  1  0.63892819  0.74253986  0.95445981  1
  C  C381  1  0.60805964  0.76935345  0.08616117  1
  C  C382  1  0.64227260  0.77411480  0.01933162  1
  C  C383  1  0.64273851  0.81313243  0.00873242  1
  C  C384  1  0.67199867  0.81243841  0.01574864  1
  C  C385  1  0.68772462  0.83193230  0.01759101  1
  C  C386  1  0.67482854  0.85289847  0.01264317  1
  C  C387  1  0.64505451  0.85309215  0.00407088  1
  C  C388  1  0.62934257  0.83349970  0.00188711  1
  C  C389  1  0.69256488  0.87235211  0.01535953  1
  C  C390  1  0.72099414  0.87054261  0.02611632  1
  C  C391  1  0.56621949  0.73315970  0.09025184  1
  C  C392  1  0.56734240  0.71843414  0.15599002  1
  C  C393  1  0.53944071  0.72536156  0.16037703  1
  C  C394  1  0.52395311  0.71700047  0.19148599  1
  C  C395  1  0.53585940  0.70152559  0.21924746  1
  C  C396  1  0.56447676  0.69536968  0.21454203  1
  C  C397  1  0.58029612  0.70444763  0.18427829  1
  C  C398  1  0.51999251  0.69145807  0.25039257  1
  C  C399  1  0.53306832  0.67822039  0.27918469  1
  C  C400  1  0.15891687  0.07986255  0.05962319  1
  C  C401  1  0.18225991  0.06380989  0.05069576  1
  C  C402  1  0.20826962  0.07292638  0.05286550  1
  C  C403  1  0.20835165  0.09726583  0.06338187  1
  C  C404  1  0.19284335  0.09847858  0.10189632  1
  C  C405  1  0.16683144  0.08942948  0.09981962  1
  C  C406  1  0.16303175  0.09850485  0.02972391  1
  C  C407  1  0.18900310  0.10768856  0.03163487  1
  C  C408  1  0.13107142  0.06961688  0.05736247  1
  C  C409  1  0.10836848  0.05967469  0.05529594  1
  C  C410  1  0.23624463  0.10720668  0.06575789  1
  C  C411  1  0.25869030  0.11750071  0.06828203  1
  C  C412  1  0.96856221  0.14521115  0.04430482  1
  C  C413  1  0.99731232  0.15562555  0.05409227  1
  C  C414  1  0.99744791  0.17791501  0.05357893  1
  C  C415  1  0.96901008  0.18788176  0.04251079  1
  C  C416  1  0.95112566  0.17777885  0.07476430  1
  C  C417  1  0.95064316  0.15549021  0.07544545  1
  C  C418  1  0.95872651  0.15530492  0.00490195  1
  C  C419  1  0.95892374  0.17753002  0.00397481  1
  C  C420  1  0.96851268  0.12103797  0.04494566  1
  C  C421  1  0.96916342  0.10072005  0.04533619  1
  C  C422  1  0.96893842  0.21194456  0.04142896  1
  C  C423  1  0.96697746  0.23221997  0.04130388  1
  C  C424  1  0.03331829  0.85876878  0.04652898  1
  C  C425  1  0.01059099  0.84789265  0.07130671  1
  C  C426  1  0.01045671  0.82558623  0.07076578  1
  C  C427  1  0.03298253  0.81597094  0.04543262  1
  C  C428  1  0.05878218  0.82600709  0.06685666  1
  C  C429  1  0.05900958  0.84831379  0.06727924  1
  C  C430  1  0.03063979  0.84904472  0.00548714  1
  C  C431  1  0.03042432  0.82682882  0.00494094  1
  C  C432  1  0.03333331  0.88288687  0.04695968  1
  C  C433  1  0.03275353  0.90318926  0.04744694  1
  C  C434  1  0.03308780  0.79194531  0.04456581  1
  C  C435  1  0.03511914  0.77168302  0.04491080  1
  C  C436  1  0.84187335  0.92403021  0.03454345  1
  C  C437  1  0.83363814  0.91526203  0.99386981  1
  C  C438  1  0.80758959  0.90627001  0.99142068  1
  C  C439  1  0.79214460  0.90681267  0.02990104  1
  C  C440  1  0.79259984  0.93065773  0.04314825  1
  C  C441  1  0.81864839  0.93974691  0.04537826  1
  C  C442  1  0.83762530  0.90483042  0.06331741  1
  C  C443  1  0.81146038  0.89590073  0.06110288  1
  C  C444  1  0.86978406  0.93428286  0.03705216  1
  C  C445  1  0.89253827  0.94418321  0.03918829  1
  C  C446  1  0.76403892  0.89704171  0.02694868  1
  C  C447  1  0.74085386  0.88770627  0.02472480  1
  C  C448  1  0.50223500  0.39732772  0.75188721  1
  C  C449  1  0.51084927  0.39889789  0.70757180  1
  C  C450  1  0.48338162  0.41244916  0.69639682  1
  C  C451  1  0.47481605  0.41064317  0.74131640  1
  C  C452  1  0.48591107  0.37476217  0.74351379  1
  C  C453  1  0.45834497  0.38862952  0.73246467  1
  C  C454  1  0.49446486  0.37667823  0.69890592  1
  C  C455  1  0.46699826  0.39002323  0.68825782  1
  C  C456  1  0.48166610  0.43134544  0.67178053  1
  C  C457  1  0.48070392  0.44835286  0.65173702  1
  C  C458  1  0.48637473  0.35571322  0.76783263  1
  C  C459  1  0.48500361  0.33983862  0.79088953  1
  C  C460  1  0.69067483  0.46870556  0.66391633  1
  C  C461  1  0.66586441  0.45124219  0.66357098  1
  C  C462  1  0.64411075  0.46996109  0.67291405  1
  C  C463  1  0.66923219  0.48732494  0.67354883  1
  C  C464  1  0.69684417  0.46428115  0.70926069  1
  C  C465  1  0.67488136  0.48283527  0.71888145  1
  C  C466  1  0.67137763  0.44672170  0.70878703  1
  C  C467  1  0.65040572  0.46530292  0.71883889  1
  C  C468  1  0.61675544  0.47254711  0.65599935  1
  C  C469  1  0.59216133  0.47388741  0.64345422  1
  C  C470  1  0.72297172  0.46118544  0.72955965  1
  C  C471  1  0.74363873  0.45673824  0.75123100  1
  C  C472  1  0.67860592  0.44440772  0.37273127  1
  C  C473  1  0.67742950  0.45301181  0.41592434  1
  C  C474  1  0.65319976  0.46967505  0.40268356  1
  C  C475  1  0.65516688  0.46091363  0.35878426  1
  C  C476  1  0.70236024  0.46243706  0.36304154  1
  C  C477  1  0.67813145  0.47891988  0.34975906  1
  C  C478  1  0.70049451  0.47097362  0.40665320  1
  C  C479  1  0.67676714  0.48755599  0.39310956  1
  C  C480  1  0.62779387  0.47336294  0.42310180  1
  C  C481  1  0.60496241  0.47667620  0.44006207  1
  C  C482  1  0.72624822  0.45759426  0.34094541  1
  C  C483  1  0.74541443  0.45092580  0.32063694  1
  C  C484  1  0.33317618  0.55341146  0.37599632  1
  C  C485  1  0.33862921  0.55565707  0.42153457  1
  C  C486  1  0.35690830  0.53384434  0.42244794  1
  C  C487  1  0.35057822  0.53174528  0.37612008  1
  C  C488  1  0.30511832  0.53930648  0.38337412  1
  C  C489  1  0.32330952  0.51774869  0.38416523  1
  C  C490  1  0.31126941  0.54166206  0.42932832  1
  C  C491  1  0.32920711  0.51999022  0.42998697  1
  C  C492  1  0.38406257  0.53132756  0.44010356  1
  C  C493  1  0.40864809  0.52992911  0.45263421  1
  C  C494  1  0.27995742  0.54323247  0.36090470  1
  C  C495  1  0.25952354  0.54945630  0.34031675  1
  C  C496  1  0.33028089  0.53508996  0.75040687  1
  C  C497  1  0.33364739  0.51741675  0.71774000  1
  C  C498  1  0.35060526  0.53472522  0.69176694  1
  C  C499  1  0.34651398  0.55253770  0.72506862  1
  C  C500  1  0.30106427  0.54261048  0.73007290  1
  C  C501  1  0.31817504  0.55999091  0.70425871  1
  C  C502  1  0.30516757  0.52492366  0.69708500  1
  C  C503  1  0.32161576  0.54230905  0.67153588  1
  C  C504  1  0.37604870  0.53069217  0.67177695  1
  C  C505  1  0.39888308  0.52716940  0.65501131  1
  C  C506  1  0.27655105  0.54693023  0.75091825  1
  C  C507  1  0.25715491  0.55209043  0.77215659  1
  C  C508  1  0.53654839  0.62531139  0.38826335  1
  C  C509  1  0.51206924  0.61595002  0.41378263  1
  C  C510  1  0.51848347  0.59177556  0.40021392  1
  C  C511  1  0.54290920  0.60150135  0.37394011  1
  C  C512  1  0.51485145  0.62882065  0.35177740  1
  C  C513  1  0.52149816  0.60447363  0.33809794  1
  C  C514  1  0.49071403  0.61918290  0.37753250  1
  C  C515  1  0.49705002  0.59512879  0.36366898  1
  C  C516  1  0.52043569  0.57284623  0.42474806  1
  C  C517  1  0.52130799  0.55569252  0.44439419  1
  C  C518  1  0.51496733  0.64739857  0.32619501  1
  C  C519  1  0.51926427  0.66296831  0.30324999  1
  C  C520  1  0.48451442  0.37968593  0.44375442  1
  C  C521  1  0.50981603  0.39598500  0.45303867  1
  C  C522  1  0.49032964  0.41620597  0.44232169  1
  C  C523  1  0.46516837  0.39984085  0.43245855  1
  C  C524  1  0.49378081  0.37811072  0.39941987  1
  C  C525  1  0.47424309  0.39871547  0.38847165  1
  C  C526  1  0.51885622  0.39468361  0.40887307  1
  C  C527  1  0.49954801  0.41480883  0.39764822  1
  C  C528  1  0.48968097  0.43583266  0.46391248  1
  C  C529  1  0.49117503  0.45408087  0.47910392  1
  C  C530  1  0.49366816  0.35891794  0.37642847  1
  C  C531  1  0.48998580  0.34279232  0.35504592  1
  C  C532  1  0.53008411  0.60651269  0.70361373  1
  C  C533  1  0.50557347  0.58918523  0.69851653  1
  C  C534  1  0.51191216  0.58741158  0.65281528  1
  C  C535  1  0.53628802  0.60497712  0.65856572  1
  C  C536  1  0.50845307  0.62608285  0.69400440  1
  C  C537  1  0.51486970  0.62405934  0.64880315  1
  C  C538  1  0.48418226  0.60818996  0.68882809  1
  C  C539  1  0.49035557  0.60655547  0.64368865  1
  C  C540  1  0.51246544  0.56775243  0.63135412  1
  C  C541  1  0.51105118  0.54951723  0.61610928  1
  C  C542  1  0.50784438  0.64575009  0.71537710  1
  C  C543  1  0.51073156  0.66166313  0.73749690  1
  O  O544  1  0.49777415  0.48603711  0.51709182  1
  O  O545  1  0.50121655  0.48444731  0.44863605  1
  O  O546  1  0.56988531  0.48465383  0.48890014  1
  O  O547  1  0.55572836  0.47886410  0.42195122  1
  O  O548  1  0.53509860  0.52923965  0.49227773  1
  O  O549  1  0.50195235  0.52326991  0.44078074  1
  O  O550  1  0.44275716  0.51926850  0.49867238  1
  O  O551  1  0.45249530  0.53888732  0.43998492  1
  O  O552  1  0.50420484  0.51726058  0.57905234  1
  O  O553  1  0.50333725  0.51922874  0.64780551  1
  O  O554  1  0.43398854  0.51927320  0.60654432  1
  O  O555  1  0.44798787  0.52483996  0.67362471  1
  O  O556  1  0.46781197  0.47506175  0.60381773  1
  O  O557  1  0.49935545  0.48077416  0.65743521  1
  O  O558  1  0.55831178  0.48476761  0.59729540  1
  O  O559  1  0.54833432  0.46377507  0.65432422  1
  O  O560  1  0.45108292  0.27101622  0.17154963  1
  O  O561  1  0.44472155  0.26509601  0.97472618  1
  O  O562  1  0.36912549  0.21550288  0.08964084  1
  O  O563  1  0.80593952  0.39742326  0.94596603  1
  O  O564  1  0.81216321  0.39206662  0.14436262  1
  O  O565  1  0.88801250  0.34289160  0.03023514  1
  O  O566  1  0.19477876  0.60778010  0.96199289  1
  O  O567  1  0.19118591  0.61081904  0.16038016  1
  O  O568  1  0.11447790  0.66150531  0.04013709  1
  O  O569  1  0.57678269  0.71770901  0.92897454  1
  O  O570  1  0.58279726  0.72522216  0.12468700  1
  O  O571  1  0.62677441  0.79422257  0.00841626  1
