# generated using pymatgen
data_P2H129C131(N2O)6
_symmetry_space_group_name_H-M   'P 1'
_cell_length_a   46.39425331
_cell_length_b   61.60908118
_cell_length_c   31.17473360
_cell_angle_alpha   89.65271690
_cell_angle_beta   89.95137513
_cell_angle_gamma   88.28026561
_symmetry_Int_Tables_number   1
_chemical_formula_structural   P2H129C131(N2O)6
_chemical_formula_sum   'P4 H258 C262 N24 O12'
_cell_volume   89065.17799431
_cell_formula_units_Z   2
loop_
 _symmetry_equiv_pos_site_id
 _symmetry_equiv_pos_as_xyz
  1  'x, y, z'
loop_
 _atom_site_type_symbol
 _atom_site_label
 _atom_site_symmetry_multiplicity
 _atom_site_fract_x
 _atom_site_fract_y
 _atom_site_fract_z
 _atom_site_occupancy
  P  P0  1  0.49447815  0.48460251  0.55473161  1
  P  P1  1  0.51604527  0.52828110  0.46197045  1
  P  P2  1  0.51776194  0.52861677  0.55537637  1
  P  P3  1  0.49501426  0.48429644  0.46325657  1
  H  H4  1  0.07706672  0.98010145  0.95795275  1
  H  H5  1  0.98151619  0.95233423  0.94312159  1
  H  H6  1  0.97831733  0.98095180  0.94295949  1
  H  H7  1  0.01331682  0.95394786  0.00990392  1
  H  H8  1  0.00877478  0.98225868  0.00870946  1
  H  H9  1  0.04025250  0.95412736  0.94014914  1
  H  H10  1  0.03281878  0.98224251  0.93464307  1
  H  H11  1  0.04311695  0.98747687  0.03710606  1
  H  H12  1  0.07992208  0.99306915  0.03271270  1
  H  H13  1  0.96732308  0.98589499  0.04412908  1
  H  H14  1  0.93067797  0.97932749  0.03948188  1
  H  H15  1  0.97842483  0.93679368  0.02033165  1
  H  H16  1  0.94779331  0.94771133  0.04902853  1
  H  H17  1  0.07970020  0.94116267  0.98206431  1
  H  H18  1  0.07159149  0.95207299  0.03355363  1
  H  H19  1  0.92329156  0.02103604  0.04661594  1
  H  H20  1  0.02408730  0.04417117  0.06768216  1
  H  H21  1  0.02688198  0.01550117  0.06964297  1
  H  H22  1  0.99050747  0.04327168  0.00630909  1
  H  H23  1  -0.00480323  0.01514387  0.00186700  1
  H  H24  1  0.96344862  0.03952441  0.07505678  1
  H  H25  1  0.96928366  0.01115166  0.07473633  1
  H  H26  1  0.95966477  0.00839692  0.97226643  1
  H  H27  1  0.92249833  0.00363777  0.97834378  1
  H  H28  1  0.03724474  0.01032027  0.96436769  1
  H  H29  1  0.07365301  0.01667851  0.97211670  1
  H  H30  1  0.02317499  0.05528409  0.97980359  1
  H  H31  1  0.05622145  0.04551799  0.95850417  1
  H  H32  1  0.93893574  0.05782765  0.02714261  1
  H  H33  1  0.95253717  0.04615736  0.97930514  1
  H  H34  1  0.45381346  0.47397781  0.52293294  1
  H  H35  1  0.49985292  0.56105887  0.53302249  1
  H  H36  1  0.48161367  0.55513994  0.46951435  1
  H  H37  1  0.46818354  0.45508705  0.47374941  1
  H  H38  1  0.53123609  0.51619505  0.39831890  1
  H  H39  1  0.53360495  0.51539180  0.61782217  1
  H  H40  1  0.53136486  0.47603362  0.60023566  1
  H  H41  1  0.50993669  0.48232242  0.39483715  1
  H  H42  1  0.27337136  0.41138761  0.26154308  1
  H  H43  1  0.32879284  0.38441294  0.23864335  1
  H  H44  1  0.33054358  0.36050007  0.18382204  1
  H  H45  1  0.30884987  0.34028754  0.12505907  1
  H  H46  1  0.22718093  0.37386221  0.14706777  1
  H  H47  1  0.24855404  0.39388824  0.20743818  1
  H  H48  1  0.28286401  0.31932286  0.08908962  1
  H  H49  1  0.29204467  0.34370165  0.06233638  1
  H  H50  1  0.26685611  0.37232392  0.97123191  1
  H  H51  1  0.29457141  0.35683874  0.99632280  1
  H  H52  1  0.26868876  0.37117491  0.02781271  1
  H  H53  1  0.25067273  0.30094397  0.10345922  1
  H  H54  1  0.25718485  0.27920631  0.06740697  1
  H  H55  1  0.22165276  0.28629988  0.08406160  1
  H  H56  1  0.19229753  0.32478077  0.90961477  1
  H  H57  1  0.17224208  0.31186481  0.95043005  1
  H  H58  1  0.19875182  0.29709219  0.92118802  1
  H  H59  1  0.19851145  0.27638281  0.97638919  1
  H  H60  1  0.20913732  0.27293362  0.03079932  1
  H  H61  1  0.17954111  0.25045890  0.01241245  1
  H  H62  1  0.13969036  0.22587963  0.00355207  1
  H  H63  1  0.07855867  0.27945647  0.02405568  1
  H  H64  1  0.11945160  0.30472215  0.02980903  1
  H  H65  1  0.06030383  0.24522922  0.00725345  1
  H  H66  1  0.10490316  0.20634875  0.00411498  1
  H  H67  1  0.20409147  0.35442955  0.92181535  1
  H  H68  1  0.23432604  0.36948664  0.93663939  1
  H  H69  1  0.21377103  0.38031139  0.87684502  1
  H  H70  1  0.22870008  0.40728556  0.82319955  1
  H  H71  1  0.30161576  0.36490090  0.78905927  1
  H  H72  1  0.28570871  0.33807559  0.84238139  1
  H  H73  1  0.26390980  0.41960857  0.76872810  1
  H  H74  1  0.30645118  0.38314476  0.73848518  1
  H  H75  1  0.53265209  0.31142272  0.75493397  1
  H  H76  1  0.46815958  0.30210256  0.76941585  1
  H  H77  1  0.46092275  0.27142180  0.82208042  1
  H  H78  1  0.47908708  0.24839751  0.88114168  1
  H  H79  1  0.56354290  0.27512902  0.86668586  1
  H  H80  1  0.54555834  0.29907753  0.80871519  1
  H  H81  1  0.50719610  0.22236794  0.92114692  1
  H  H82  1  0.49757974  0.24677966  0.94798714  1
  H  H83  1  0.52210507  0.27415452  0.03889105  1
  H  H84  1  0.49484850  0.25950905  0.01396781  1
  H  H85  1  0.52016299  0.27345982  0.98234973  1
  H  H86  1  0.54142079  0.20378645  0.90600908  1
  H  H87  1  0.53494849  0.18250157  0.94282246  1
  H  H88  1  0.57048694  0.18763796  0.92529005  1
  H  H89  1  0.59825052  0.22498557  0.10060514  1
  H  H90  1  0.61924171  0.21172042  0.06051707  1
  H  H91  1  0.59278244  0.19750859  0.08911673  1
  H  H92  1  0.59242759  0.17673259  0.03353366  1
  H  H93  1  0.58580290  0.17459560  0.97761301  1
  H  H94  1  0.61314541  0.14908566  0.00211722  1
  H  H95  1  0.65089965  0.12108934  0.00614705  1
  H  H96  1  0.71536539  0.16953024  0.98605457  1
  H  H97  1  0.67659473  0.19804327  0.98287377  1
  H  H98  1  0.73174611  0.13261829  0.99720010  1
  H  H99  1  0.68384031  0.09883251  0.00998898  1
  H  H100  1  0.58307031  0.25325756  0.09227469  1
  H  H101  1  0.55505950  0.27052439  0.07246223  1
  H  H102  1  0.57526499  0.28022916  0.12988735  1
  H  H103  1  0.56391810  0.30919525  0.18131185  1
  H  H104  1  0.49048156  0.27381126  0.22661157  1
  H  H105  1  0.50086461  0.24554426  0.17209963  1
  H  H106  1  0.53879855  0.32410244  0.23565864  1
  H  H107  1  0.48418626  0.30374290  0.27450384  1
  H  H108  1  0.48813734  0.70798606  0.75048470  1
  H  H109  1  0.55268796  0.71723064  0.76310286  1
  H  H110  1  0.56089327  0.74841778  0.81420252  1
  H  H111  1  0.54414966  0.77181214  0.87273069  1
  H  H112  1  0.45902723  0.74617771  0.86205119  1
  H  H113  1  0.47546987  0.72214949  0.80419817  1
  H  H114  1  0.51487548  0.79903339  0.91533513  1
  H  H115  1  0.52506512  0.77488215  0.94299200  1
  H  H116  1  0.50074935  0.74752042  0.03521685  1
  H  H117  1  0.52787019  0.76241974  0.01006677  1
  H  H118  1  0.50286419  0.74825347  0.97862102  1
  H  H119  1  0.48122098  0.81853354  0.90152285  1
  H  H120  1  0.48695080  0.83976338  0.93836284  1
  H  H121  1  0.45166027  0.83408687  0.92091739  1
  H  H122  1  0.42475336  0.79654777  0.09678927  1
  H  H123  1  0.40373502  0.80958714  0.05628964  1
  H  H124  1  0.42979799  0.82407446  0.08467092  1
  H  H125  1  0.43072768  0.84484275  0.03000107  1
  H  H126  1  0.43756993  0.84762581  0.97423143  1
  H  H127  1  0.40863036  0.87226434  0.99957810  1
  H  H128  1  0.36874677  0.89909290  0.00124978  1
  H  H129  1  0.30796064  0.84823564  0.98124790  1
  H  H130  1  0.34850973  0.82090168  0.98042492  1
  H  H131  1  0.28993440  0.88379718  0.98645187  1
  H  H132  1  0.33145336  0.92196657  -0.01482705  1
  H  H133  1  0.43958639  0.76812819  0.08805355  1
  H  H134  1  0.46812479  0.75106030  0.06963202  1
  H  H135  1  0.44759049  0.74123925  0.12772012  1
  H  H136  1  0.45925915  0.71220874  0.17930934  1
  H  H137  1  0.53170395  0.74819865  0.22486997  1
  H  H138  1  0.52095975  0.77647429  0.17003285  1
  H  H139  1  0.48272003  0.69741493  0.23267551  1
  H  H140  1  0.53699724  0.71478707  0.27671691  1
  H  H141  1  0.72455486  0.59794605  0.75048910  1
  H  H142  1  0.76262655  0.55638200  0.76469278  1
  H  H143  1  0.80176355  0.56019647  0.81721743  1
  H  H144  1  0.82408703  0.57982004  0.87639227  1
  H  H145  1  0.75997436  0.63161408  0.86335330  1
  H  H146  1  0.73663796  0.61194726  0.80493040  1
  H  H147  1  0.84617373  0.60533252  0.91616442  1
  H  H148  1  0.81800007  0.59179656  0.94279858  1
  H  H149  1  0.77425447  0.60212979  0.03309636  1
  H  H150  1  0.80160692  0.58624300  0.00847809  1
  H  H151  1  0.77629294  0.60112391  0.97660107  1
  H  H152  1  0.85989444  0.63441057  0.90179925  1
  H  H153  1  0.88874038  0.63588346  0.93873961  1
  H  H154  1  0.87012883  0.65977692  0.92086771  1
  H  H155  1  0.81304422  0.66924063  0.09583276  1
  H  H156  1  0.82303704  0.68808628  0.05555299  1
  H  H157  1  0.84965708  0.67279924  0.08388735  1
  H  H158  1  0.87631468  0.67826981  0.02885524  1
  H  H159  1  0.88172609  0.67357145  0.97317250  1
  H  H160  1  0.90486825  0.69853858  0.99499632  1
  H  H161  1  0.92979698  0.73160007  0.00186014  1
  H  H162  1  0.84907725  0.76843344  0.98366456  1
  H  H163  1  0.82368730  0.73370806  0.97895574  1
  H  H164  1  0.89622815  0.78869660  0.99543881  1
  H  H165  1  0.94858171  0.75587003  0.00135537  1
  H  H166  1  0.77979131  0.65209741  0.08379420  1
  H  H167  1  0.76858416  0.62631835  0.06719648  1
  H  H168  1  0.74909277  0.63936970  0.12410905  1
  H  H169  1  0.71645895  0.62279733  0.17623651  1
  H  H170  1  0.78680279  0.58093531  0.22173752  1
  H  H171  1  0.81890854  0.59682131  0.16699089  1
  H  H172  1  0.70680671  0.59956073  0.23197268  1
  H  H173  1  0.75437189  0.56810527  0.26852770  1
  H  H174  1  0.07711886  0.06278645  0.02566549  1
  H  H175  1  0.04096908  0.20878522  0.00242155  1
  H  H176  1  0.04443244  0.08611375  0.95798817  1
  H  H177  1  0.08274441  0.08443581  0.96353633  1
  H  H178  1  0.04024548  0.10460692  0.02763546  1
  H  H179  1  0.07804271  0.10284075  0.03430116  1
  H  H180  1  0.08338923  0.12539723  0.96606926  1
  H  H181  1  0.04532581  0.12796788  0.96294832  1
  H  H182  1  0.04626172  0.17936360  0.05427328  1
  H  H183  1  0.08431296  0.18160176  0.05097007  1
  H  H184  1  0.08494216  0.16626879  0.97785873  1
  H  H185  1  0.04681391  0.16776048  0.97528795  1
  H  H186  1  0.04405692  0.14249767  0.03845059  1
  H  H187  1  0.08211695  0.14057487  0.04049494  1
  H  H188  1  0.90917487  0.06372520  0.96431897  1
  H  H189  1  0.71967559  0.07617951  0.03475998  1
  H  H190  1  0.87903832  0.02776902  1.00811315  1
  H  H191  1  0.87046670  0.03817208  0.95656828  1
  H  H192  1  0.86312250  0.06173230  0.04195438  1
  H  H193  1  0.86534534  0.07642331  0.99341659  1
  H  H194  1  0.82319378  0.05649592  0.96380681  1
  H  H195  1  0.82005001  0.04223653  0.01270217  1
  H  H196  1  0.76260313  0.09717506  0.05832387  1
  H  H197  1  0.76255232  0.10832468  0.00578054  1
  H  H198  1  0.77122496  0.07151151  0.97489182  1
  H  H199  1  0.76831698  0.05943605  0.02613144  1
  H  H200  1  0.81218355  0.07812786  0.05110894  1
  H  H201  1  0.81474883  0.09188877  0.00155033  1
  H  H202  1  0.11419715  0.97908777  -0.00307318  1
  H  H203  1  0.28215358  0.91628728  0.03978677  1
  H  H204  1  0.12558155  0.93806375  0.04434990  1
  H  H205  1  0.13983348  0.96399302  0.05502720  1
  H  H206  1  0.15308680  0.93542687  0.97724148  1
  H  H207  1  0.16039784  0.96336821  0.97824768  1
  H  H208  1  0.19186489  0.95795170  0.04227539  1
  H  H209  1  0.18474158  0.92995044  0.04248511  1
  H  H210  1  0.26128405  0.91787955  0.96127614  1
  H  H211  1  0.27085934  0.94542262  0.96673204  1
  H  H212  1  0.24345650  0.94807253  0.03522071  1
  H  H213  1  0.23527132  0.92030710  0.03237602  1
  H  H214  1  0.20540090  0.92725601  0.96692730  1
  H  H215  1  0.21329460  0.95510165  0.96865732  1
  H  H216  1  0.91836086  0.92787604  0.00430584  1
  H  H217  1  0.97600908  0.78527343  -0.00206014  1
  H  H218  1  0.97277282  0.91221352  0.96260799  1
  H  H219  1  0.93745491  0.90393556  0.95076970  1
  H  H220  1  0.97388863  0.89253325  0.02984954  1
  H  H221  1  0.93595135  0.89113108  0.03172690  1
  H  H222  1  0.93763015  0.86727338  0.96552252  1
  H  H223  1  0.97563713  0.86675905  0.96821405  1
  H  H224  1  0.96579909  0.81017615  0.05503563  1
  H  H225  1  0.92839514  0.80960330  0.04282688  1
  H  H226  1  0.93699796  0.82799855  0.97335103  1
  H  H227  1  0.97474032  0.82530689  0.98009595  1
  H  H228  1  0.97314408  0.85034983  0.04225284  1
  H  H229  1  0.93510340  0.85189788  0.04011953  1
  H  H230  1  0.42651911  0.45077167  0.68451113  1
  H  H231  1  0.36770680  0.45853471  0.57852668  1
  H  H232  1  0.40639559  0.47392095  0.53490562  1
  H  H233  1  0.46413732  0.46886845  0.64349192  1
  H  H234  1  0.46494645  0.40607082  0.62076705  1
  H  H235  1  0.55393262  0.40962790  0.65761275  1
  H  H236  1  0.55603229  0.44582741  0.62426657  1
  H  H237  1  0.46945391  0.43916801  0.57797455  1
  H  H238  1  0.55024350  0.40258355  0.39498621  1
  H  H239  1  0.45815745  0.41455710  0.37983797  1
  H  H240  1  0.46715057  0.45345401  0.39561233  1
  H  H241  1  0.55103335  0.43721932  0.43336225  1
  H  H242  1  0.51848852  0.59051623  0.32379445  1
  H  H243  1  0.50114217  0.62674966  0.43850538  1
  H  H244  1  0.49683675  0.59286679  0.47889229  1
  H  H245  1  0.50624724  0.55707065  0.36238127  1
  H  H246  1  0.46338598  0.61556465  0.62480053  1
  H  H247  1  0.55423091  0.60508241  0.64466609  1
  H  H248  1  0.55329275  0.57302415  0.59909969  1
  H  H249  1  0.46110515  0.58013493  0.59011977  1
  H  H250  1  0.59332203  0.55972554  0.32479519  1
  H  H251  1  0.64007076  0.52921741  0.42899315  1
  H  H252  1  0.59434028  0.52006374  0.46381073  1
  H  H253  1  0.54799422  0.54724214  0.35583788  1
  H  H254  1  0.43355008  0.43666249  0.33671555  1
  H  H255  1  0.36929990  0.47174829  0.41682123  1
  H  H256  1  0.40907382  0.48683670  0.45675182  1
  H  H257  1  0.47056833  0.45045998  0.38107627  1
  H  H258  1  0.64294557  0.52248539  0.58902018  1
  H  H259  1  0.59757013  0.56283782  0.68064438  1
  H  H260  1  0.55124927  0.55019808  0.65217230  1
  H  H261  1  0.59686857  0.51359659  0.55535053  1
  C  C262  1  0.98149540  0.96667042  0.96408995  1
  C  C263  1  0.01026095  0.96788641  0.98809710  1
  C  C264  1  0.03613537  0.96909151  0.95838976  1
  C  C265  1  0.05998748  0.99182827  0.01417510  1
  C  C266  1  0.94982794  0.98364550  0.02066768  1
  C  C267  1  0.95641661  0.94423384  0.01662998  1
  C  C268  1  0.08135352  0.95569444  0.00217020  1
  C  C269  1  0.02301132  0.02945515  0.04789092  1
  C  C270  1  0.99366410  0.02833916  0.02534001  1
  C  C271  1  0.96718339  0.02553903  0.05382827  1
  C  C272  1  0.94292548  0.00459519  0.99580347  1
  C  C273  1  0.05377462  0.01231316  0.98943178  1
  C  C274  1  0.04529681  0.04970842  0.98922929  1
  C  C275  1  0.93485251  0.04534141  0.00287649  1
  C  C276  1  0.29607789  0.40612501  0.26086677  1
  C  C277  1  0.30630316  0.38958338  0.23401546  1
  C  C278  1  0.29154380  0.37879802  0.20030958  1
  C  C279  1  0.30787215  0.36342759  0.17593744  1
  C  C280  1  0.29581885  0.35233006  0.14246361  1
  C  C281  1  0.26685425  0.35640479  0.13204592  1
  C  C282  1  0.24980539  0.37115734  0.15567513  1
  C  C283  1  0.26195051  0.38233606  0.18938665  1
  C  C284  1  0.27393813  0.33343560  0.07121335  1
  C  C285  1  0.25629961  0.32699476  0.03364720  1
  C  C286  1  0.23962345  0.30831196  0.03706073  1
  C  C287  1  0.22045302  0.30385735  0.00351264  1
  C  C288  1  0.21596321  0.31855321  0.96905117  1
  C  C289  1  0.23161823  0.33782473  0.96806875  1
  C  C290  1  0.25284333  0.34186662  0.99913845  1
  C  C291  1  0.27145487  0.36146040  0.99841622  1
  C  C292  1  0.24241625  0.29306241  0.07475284  1
  C  C293  1  0.19384054  0.31299658  0.93596482  1
  C  C294  1  0.20127890  0.28492991  0.00703302  1
  C  C295  1  0.15158275  0.27916900  0.01936333  1
  C  C296  1  0.15744702  0.25697364  0.01341236  1
  C  C297  1  0.13485508  0.24305628  0.00916499  1
  C  C298  1  0.10595958  0.25117145  0.01128697  1
  C  C299  1  0.10076353  0.27351125  0.02015296  1
  C  C300  1  0.12337901  0.28745607  0.02402251  1
  C  C301  1  0.08189199  0.23757615  0.00596267  1
  C  C302  1  0.08402381  0.21527414  0.00572260  1
  C  C303  1  0.22702546  0.35295395  0.93095512  1
  C  C304  1  0.24989896  0.35821203  0.86389843  1
  C  C305  1  0.23329495  0.37735520  0.85800463  1
  C  C306  1  0.24145113  0.39225721  0.82732279  1
  C  C307  1  0.26628332  0.38838320  0.80131837  1
  C  C308  1  0.28205824  0.36839985  0.80744057  1
  C  C309  1  0.27345824  0.35329302  0.83761123  1
  C  C310  1  0.27579419  0.40411084  0.77098068  1
  C  C311  1  0.29917727  0.40004937  0.74379171  1
  C  C312  1  0.50941826  0.31549834  0.75491282  1
  C  C313  1  0.49102753  0.30202061  0.77747084  1
  C  C314  1  0.50146404  0.28747202  0.81036800  1
  C  C315  1  0.48336025  0.27264998  0.83199174  1
  C  C316  1  0.49356405  0.25960261  0.86540902  1
  C  C317  1  0.52247648  0.26070599  0.87798304  1
  C  C318  1  0.54105049  0.27459413  0.85663986  1
  C  C319  1  0.53075265  0.28791591  0.82371024  1
  C  C320  1  0.51601416  0.23620213  0.93849495  1
  C  C321  1  0.53476763  0.22927953  0.97569598  1
  C  C322  1  0.55304523  0.21060795  0.97193961  1
  C  C323  1  0.57309898  0.20572494  0.00490176  1
  C  C324  1  0.57552991  0.21961443  0.04067542  1
  C  C325  1  0.55783237  0.23862001  0.04285194  1
  C  C326  1  0.53712224  0.24357092  0.01080747  1
  C  C327  1  0.51777954  0.26359823  0.01170384  1
  C  C328  1  0.54993163  0.19549961  0.93472979  1
  C  C329  1  0.59743757  0.21332601  0.07434586  1
  C  C330  1  0.59246870  0.18576033  0.00283097  1
  C  C331  1  0.64249386  0.17558023  0.99403832  1
  C  C332  1  0.63554031  0.15384131  0.99960797  1
  C  C333  1  0.65726043  0.13784200  0.00169043  1
  C  C334  1  0.68679091  0.14293260  0.99806784  1
  C  C335  1  0.69297175  0.16506609  0.99021439  1
  C  C336  1  0.67130035  0.18111475  0.98835324  1
  C  C337  1  0.70998966  0.12678158  1.00216565  1
  C  C338  1  0.70565795  0.10520103  0.01132985  1
  C  C339  1  0.56075396  0.25351323  0.08032855  1
  C  C340  1  0.53747567  0.26186306  0.14595937  1
  C  C341  1  0.55598214  0.27925666  0.14969030  1
  C  C342  1  0.55010328  0.29522515  0.17956035  1
  C  C343  1  0.52639583  0.29406957  0.20813011  1
  C  C344  1  0.50878176  0.27558676  0.20505533  1
  C  C345  1  0.51447477  0.25963116  0.17449941  1
  C  C346  1  0.52253726  0.31170568  0.23778966  1
  C  C347  1  0.50106562  0.31539086  0.26845471  1
  C  C348  1  0.51132942  0.70370014  0.74951594  1
  C  C349  1  0.52987899  0.71724557  0.77154834  1
  C  C350  1  0.52006599  0.73240796  0.80422853  1
  C  C351  1  0.53856254  0.74728044  0.82480207  1
  C  C352  1  0.52911857  0.76072497  0.85810244  1
  C  C353  1  0.50046618  0.76009841  0.87222663  1
  C  C354  1  0.48146519  0.74639017  0.85158856  1
  C  C355  1  0.49099529  0.73282357  0.81864155  1
  C  C356  1  0.50634041  0.78507575  0.93297867  1
  C  C357  1  0.48745780  0.79196941  0.97025486  1
  C  C358  1  0.46981929  0.81104747  0.96732546  1
  C  C359  1  0.45059566  0.81614773  0.00119454  1
  C  C360  1  0.44767980  0.80205321  0.03684964  1
  C  C361  1  0.46521146  0.78296535  0.03900214  1
  C  C362  1  0.48548553  0.77797182  0.00635269  1
  C  C363  1  0.50502853  0.75809317  0.00778219  1
  C  C364  1  0.47246453  0.82650252  0.93023230  1
  C  C365  1  0.42552282  0.80820263  0.07023964  1
  C  C366  1  0.43121890  0.83606606  0.99923254  1
  C  C367  1  0.38089579  0.84487961  0.98994927  1
  C  C368  1  0.38664407  0.86685151  0.99551140  1
  C  C369  1  0.36404329  0.88210452  0.99569536  1
  C  C370  1  0.33525606  0.87579432  0.98924747  1
  C  C371  1  0.33012108  0.85336813  0.98444906  1
  C  C372  1  0.35263395  0.83810286  0.98443063  1
  C  C373  1  0.31114237  0.89098685  0.98990247  1
  C  C374  1  0.31256618  0.91307328  -0.00442027  1
  C  C375  1  0.46211515  0.76803451  0.07687199  1
  C  C376  1  0.48493455  0.75986612  0.14350282  1
  C  C377  1  0.46681188  0.74230004  0.14756705  1
  C  C378  1  0.47288122  0.72628356  0.17778999  1
  C  C379  1  0.49627037  0.72742661  0.20681333  1
  C  C380  1  0.51347865  0.74617262  0.20336138  1
  C  C381  1  0.50764065  0.76220021  0.17240381  1
  C  C382  1  0.49944809  0.70929301  0.23667826  1
  C  C383  1  0.51946142  0.70400052  0.26889857  1
  C  C384  1  0.72975703  0.58044265  0.74978691  1
  C  C385  1  0.75359318  0.57238995  0.77269858  1
  C  C386  1  0.76727654  0.58425939  0.80594951  1
  C  C387  1  0.79225629  0.57573466  0.82734722  1
  C  C388  1  0.80481160  0.58669665  0.86082740  1
  C  C389  1  0.79294842  0.60677124  0.87370127  1
  C  C390  1  0.76881911  0.61591877  0.85284851  1
  C  C391  1  0.75594802  0.60478990  0.81981031  1
  C  C392  1  0.82577838  0.60790298  0.93373831  1
  C  C393  1  0.82862150  0.62280207  0.97117415  1
  C  C394  1  0.84676238  0.64073453  0.96758889  1
  C  C395  1  0.84622206  0.65636534  0.00046822  1
  C  C396  1  0.82719768  0.65461183  0.03566613  1
  C  C397  1  0.80807173  0.63723550  0.03699526  1
  C  C398  1  0.80888050  0.62087795  0.00552556  1
  C  C399  1  0.78933378  0.60180771  0.00609338  1
  C  C400  1  0.86722071  0.64280681  0.93050392  1
  C  C401  1  0.82805409  0.67191275  0.06937584  1
  C  C402  1  0.86517849  0.67559234  0.99813657  1
  C  C403  1  0.86235948  0.71392898  0.98864284  1
  C  C404  1  0.89224057  0.71373433  0.99371716  1
  C  C405  1  0.90657406  0.73306419  0.99687699  1
  C  C406  1  0.89173791  0.75343606  0.99424177  1
  C  C407  1  0.86135568  0.75313274  0.98698072  1
  C  C408  1  0.84694576  0.73371237  0.98422338  1
  C  C409  1  0.90780892  0.77300915  0.99841946  1
  C  C410  1  0.93726468  0.77162524  0.00450103  1
  C  C411  1  0.78769122  0.63583711  0.07395027  1
  C  C412  1  0.78545735  0.61801975  0.14095998  1
  C  C413  1  0.75699913  0.62601980  0.14439621  1
  C  C414  1  0.73891964  0.61714551  0.17447087  1
  C  C415  1  0.74880264  0.60058869  0.20316361  1
  C  C416  1  0.77826688  0.59351626  0.20012884  1
  C  C417  1  0.79641858  0.60236264  0.16961268  1
  C  C418  1  0.72849164  0.59221146  0.23317035  1
  C  C419  1  0.73302838  0.57571305  0.26343751  1
  C  C420  1  0.06230398  0.08539311  0.98160427  1
  C  C421  1  0.06085549  0.10477830  0.01000754  1
  C  C422  1  0.06349230  0.12555412  0.98556829  1
  C  C423  1  0.06419642  0.18226363  0.03204948  1
  C  C424  1  0.06517871  0.16516517  0.99737828  1
  C  C425  1  0.06370323  0.14335088  0.01839301  1
  C  C426  1  0.87930587  0.04255352  0.98813044  1
  C  C427  1  0.85931183  0.06065658  0.00712074  1
  C  C428  1  0.82697297  0.05772945  0.99867496  1
  C  C429  1  0.75738259  0.09378284  0.02456821  1
  C  C430  1  0.77553643  0.07410721  0.00928329  1
  C  C431  1  0.80800445  0.07653842  0.01642463  1
  C  C432  1  0.13292080  0.95309563  0.02910059  1
  C  C433  1  0.15827154  0.94889538  0.99886324  1
  C  C434  1  0.18662432  0.94424196  0.02122320  1
  C  C435  1  0.26517288  0.93073094  0.98487250  1
  C  C436  1  0.23875895  0.93492182  0.01261268  1
  C  C437  1  0.21091669  0.94049324  0.98893172  1
  C  C438  1  0.95159979  0.90892691  0.97709163  1
  C  C439  1  0.95460876  0.89037142  0.00980015  1
  C  C440  1  0.95593214  0.86843310  0.98798056  1
  C  C441  1  0.95010864  0.80914011  0.02863385  1
  C  C442  1  0.95430382  0.82796922  0.99767385  1
  C  C443  1  0.95462224  0.84977444  0.02007275  1
  C  C444  1  0.42200238  0.45643578  0.65189213  1
  C  C445  1  0.39396524  0.45334008  0.63503936  1
  C  C446  1  0.38915369  0.46043001  0.59221164  1
  C  C447  1  0.41092300  0.46889704  0.56782579  1
  C  C448  1  0.43916907  0.47099405  0.58439271  1
  C  C449  1  0.44360270  0.46589449  0.62798887  1
  C  C450  1  0.37147525  0.44412553  0.65841859  1
  C  C451  1  0.35201046  0.43565268  0.67866970  1
  C  C452  1  0.33113920  0.42618321  0.70078208  1
  C  C453  1  0.31380135  0.41557862  0.72172130  1
  C  C454  1  0.48520771  0.41465424  0.62082500  1
  C  C455  1  0.50869713  0.40535207  0.64433766  1
  C  C456  1  0.53467019  0.41693458  0.64268574  1
  C  C457  1  0.53571605  0.43737809  0.62392466  1
  C  C458  1  0.51127784  0.44720335  0.60397222  1
  C  C459  1  0.48721449  0.43414665  0.59886358  1
  C  C460  1  0.50589286  0.38564008  0.66667670  1
  C  C461  1  0.50313305  0.36867972  0.68705307  1
  C  C462  1  0.50042950  0.35028961  0.70939589  1
  C  C463  1  0.50112488  0.33337939  0.73096798  1
  C  C464  1  0.53135934  0.41362554  0.39501840  1
  C  C465  1  0.50564866  0.40676060  0.37577106  1
  C  C466  1  0.48067624  0.42121633  0.38291318  1
  C  C467  1  0.48277467  0.44298651  0.39300230  1
  C  C468  1  0.50892350  0.45016069  0.40814783  1
  C  C469  1  0.53198376  0.43336920  0.41494396  1
  C  C470  1  0.50421577  0.38664370  0.35503258  1
  C  C471  1  0.50254257  0.36952993  0.33517342  1
  C  C472  1  0.50093445  0.35095397  0.31353541  1
  C  C473  1  0.50079687  0.33406016  0.29245255  1
  C  C474  1  0.51372997  0.59114071  0.35807324  1
  C  C475  1  0.51072785  0.61188120  0.37749008  1
  C  C476  1  0.50456820  0.61127109  0.42208950  1
  C  C477  1  0.50209634  0.59191454  0.44484196  1
  C  C478  1  0.50551918  0.57139421  0.42510233  1
  C  C479  1  0.50964487  0.57182454  0.38058325  1
  C  C480  1  0.51312628  0.63165051  0.35458492  1
  C  C481  1  0.51471060  0.64889444  0.33453867  1
  C  C482  1  0.51642651  0.66765236  0.31270486  1
  C  C483  1  0.51765755  0.68482126  0.29204728  1
  C  C484  1  0.48304318  0.60546456  0.62211397  1
  C  C485  1  0.50903112  0.61359062  0.63893780  1
  C  C486  1  0.53364444  0.59978305  0.63210621  1
  C  C487  1  0.53287122  0.58067114  0.60873209  1
  C  C488  1  0.50696437  0.57225717  0.59369610  1
  C  C489  1  0.48199518  0.58546211  0.60153592  1
  C  C490  1  0.51127961  0.63358233  0.66081335  1
  C  C491  1  0.51452552  0.65057059  0.68080864  1
  C  C492  1  0.51790636  0.66887940  0.70326899  1
  C  C493  1  0.51856106  0.68565873  0.72508572  1
  C  C494  1  0.59359440  0.55075964  0.35508363  1
  C  C495  1  0.62060109  0.54517057  0.37404590  1
  C  C496  1  0.61962663  0.53407439  0.41397648  1
  C  C497  1  0.59367827  0.52879636  0.43330867  1
  C  C498  1  0.56725884  0.53326808  0.41262568  1
  C  C499  1  0.56810010  0.54415615  0.37292385  1
  C  C500  1  0.64627989  0.55071743  0.35326685  1
  C  C501  1  0.66766662  0.55610818  0.33301799  1
  C  C502  1  0.69045720  0.56228339  0.31027818  1
  C  C503  1  0.71067250  0.56863418  0.28826598  1
  C  C504  1  0.42651360  0.44639164  0.36522535  1
  C  C505  1  0.39610743  0.45168114  0.37495050  1
  C  C506  1  0.39148662  0.46692597  0.40873906  1
  C  C507  1  0.41457764  0.47502862  0.43179317  1
  C  C508  1  0.44376983  0.46694641  0.42522882  1
  C  C509  1  0.44816541  0.45346403  0.38873630  1
  C  C510  1  0.37361240  0.44246845  0.35237429  1
  C  C511  1  0.35399605  0.43421405  0.33221622  1
  C  C512  1  0.33272563  0.42525695  0.31027862  1
  C  C513  1  0.31481247  0.41625163  0.28773673  1
  C  C514  1  0.62278307  0.52938876  0.60173096  1
  C  C515  1  0.62416389  0.54295035  0.63823751  1
  C  C516  1  0.59741826  0.55135326  0.65412890  1
  C  C517  1  0.57155540  0.54455730  0.63799140  1
  C  C518  1  0.57043455  0.53133416  0.60164708  1
  C  C519  1  0.59668256  0.52429749  0.58307793  1
  C  C520  1  0.65004440  0.54817691  0.65853257  1
  C  C521  1  0.67133657  0.55356187  0.67885723  1
  C  C522  1  0.69342779  0.56029451  0.70227519  1
  C  C523  1  0.71237663  0.56812678  0.72467967  1
  N  N524  1  0.95726028  0.96514623  0.99343597  1
  N  N525  1  0.06386046  0.97405541  0.98175285  1
  N  N526  1  0.04606165  0.03045271  0.01643415  1
  N  N527  1  0.94040097  0.02366526  0.02623232  1
  N  N528  1  0.49519492  0.50989259  0.56699729  1
  N  N529  1  0.46082956  0.47543664  0.55410949  1
  N  N530  1  0.50542153  0.55507091  0.56256722  1
  N  N531  1  0.49280037  0.50982925  0.45281046  1
  N  N532  1  0.49795707  0.55218376  0.44828220  1
  N  N533  1  0.46288742  0.47013634  0.46122455  1
  N  N534  1  0.53098249  0.52978474  0.50775884  1
  N  N535  1  0.54327815  0.52214093  0.59162463  1
  N  N536  1  0.54071189  0.52342013  0.42391026  1
  N  N537  1  0.50759452  0.47711866  0.50913324  1
  N  N538  1  0.51183371  0.46968787  0.59326978  1
  N  N539  1  0.51300179  0.47213499  0.42058999  1
  N  N540  1  0.05833250  0.06733510  0.01050531  1
  N  N541  1  0.06065838  0.20349037  0.01320233  1
  N  N542  1  0.90873716  0.04885668  0.97881703  1
  N  N543  1  0.72656886  0.09002976  0.02073254  1
  N  N544  1  0.11017646  0.96343598  0.00458595  1
  N  N545  1  0.28948155  0.92447838  1.01344944  1
  N  N546  1  0.93928444  0.92878879  -0.00530928  1
  N  N547  1  0.95527110  0.78850110  0.00694895  1
  O  O548  1  0.25438265  0.34594848  0.09912852  1
  O  O549  1  0.24355825  0.34384155  0.89534575  1
  O  O550  1  0.17313836  0.29351752  0.02081840  1
  O  O551  1  0.53456205  0.24827631  0.90969185  1
  O  O552  1  0.54175505  0.24674967  0.11486342  1
  O  O553  1  0.62206518  0.19193248  0.99380122  1
  O  O554  1  0.48857808  0.77263010  0.90393863  1
  O  O555  1  0.48047585  0.77495356  0.11191523  1
  O  O556  1  0.40206822  0.82914812  0.98983079  1
  O  O557  1  0.80452855  0.61859043  0.90556728  1
  O  O558  1  0.80300488  0.62542669  0.10964255  1
  O  O559  1  0.84773197  0.69511814  0.98807446  1
