# generated using pymatgen
data_MgH188(C34O3)8
_symmetry_space_group_name_H-M   'P 1'
_cell_length_a   67.76047387
_cell_length_b   67.69754303
_cell_length_c   32.55046505
_cell_angle_alpha   89.98119629
_cell_angle_beta   90.07192231
_cell_angle_gamma   89.20312293
_symmetry_Int_Tables_number   1
_chemical_formula_structural   MgH188(C34O3)8
_chemical_formula_sum   'Mg1 H188 C272 O24'
_cell_volume   149301.49815215
_cell_formula_units_Z   1
loop_
 _symmetry_equiv_pos_site_id
 _symmetry_equiv_pos_as_xyz
  1  'x, y, z'
loop_
 _atom_site_type_symbol
 _atom_site_label
 _atom_site_symmetry_multiplicity
 _atom_site_fract_x
 _atom_site_fract_y
 _atom_site_fract_z
 _atom_site_occupancy
  Mg  Mg0  1  0.49998275  0.50016734  0.49970074  1
  H  H1  1  0.01892587  0.50942840  0.14324939  1
  H  H2  1  0.98170570  0.50916706  0.14326712  1
  H  H3  1  0.98146899  0.51060383  0.85713055  1
  H  H4  1  0.01867012  0.51142782  0.85724104  1
  H  H5  1  0.51055325  0.01882233  0.14317424  1
  H  H6  1  0.50849915  0.98161476  0.14331399  1
  H  H7  1  0.50769299  0.98182555  0.85691121  1
  H  H8  1  0.50854883  0.01911674  0.85730821  1
  H  H9  1  0.11670474  0.51203977  0.24961709  1
  H  H10  1  0.10421278  0.46902610  0.26717394  1
  H  H11  1  0.12167820  0.45246984  0.32134468  1
  H  H12  1  0.14469051  0.45229628  0.37969659  1
  H  H13  1  0.15568355  0.51427437  0.36064568  1
  H  H14  1  0.13258677  0.51474027  0.30230025  1
  H  H15  1  0.17197774  0.45451817  0.41558776  1
  H  H16  1  0.15036238  0.46273277  0.44147076  1
  H  H17  1  0.13988572  0.49166060  0.52844879  1
  H  H18  1  0.13952823  0.46806577  0.50586648  1
  H  H19  1  0.13979902  0.48947405  0.47453699  1
  H  H20  1  0.19897007  0.46223309  0.40216760  1
  H  H21  1  0.21198656  0.44687117  0.43720853  1
  H  H22  1  0.22210026  0.46951186  0.42059014  1
  H  H23  1  0.20545531  0.50479038  0.58977087  1
  H  H24  1  0.22366469  0.50905525  0.55171026  1
  H  H25  1  0.22323459  0.48640289  0.57860475  1
  H  H26  1  0.23854990  0.47548554  0.52451416  1
  H  H27  1  0.23724742  0.47023294  0.47102680  1
  H  H28  1  0.26572272  0.47047289  0.49367299  1
  H  H29  1  0.30100449  0.47442743  0.49804955  1
  H  H30  1  0.29380801  0.53748252  0.47941297  1
  H  H31  1  0.25758228  0.53326251  0.47592657  1
  H  H32  1  0.32707443  0.52391392  0.48793181  1
  H  H33  1  0.32996158  0.47851211  0.50053162  1
  H  H34  1  0.17848431  0.51339773  0.57966583  1
  H  H35  1  0.15500647  0.50535330  0.56381888  1
  H  H36  1  0.15617231  0.52292968  0.61874121  1
  H  H37  1  0.13163418  0.53134845  0.67147622  1
  H  H38  1  0.13186166  0.47030125  0.71163391  1
  H  H39  1  0.15606751  0.46201933  0.65788606  1
  H  H40  1  0.11059494  0.52277844  0.72692350  1
  H  H41  1  0.11368109  0.47929647  0.75662368  1
  H  H42  1  0.50236915  0.11218514  0.25663115  1
  H  H43  1  0.54752878  0.10525972  0.26492696  1
  H  H44  1  0.56312160  0.12187436  0.32075509  1
  H  H45  1  0.56234806  0.14455472  0.37955265  1
  H  H46  1  0.49991988  0.15460572  0.36107990  1
  H  H47  1  0.50048013  0.13228377  0.30157931  1
  H  H48  1  0.55905292  0.17149831  0.41555409  1
  H  H49  1  0.55176163  0.14972976  0.44143498  1
  H  H50  1  0.52309423  0.13889015  0.52835488  1
  H  H51  1  0.54671449  0.13872274  0.50596847  1
  H  H52  1  0.52536484  0.13888272  0.47445726  1
  H  H53  1  0.55060009  0.19843187  0.40248833  1
  H  H54  1  0.56539536  0.21163666  0.43758134  1
  H  H55  1  0.54235814  0.22144829  0.42090560  1
  H  H56  1  0.50761243  0.20431835  0.58982581  1
  H  H57  1  0.50267050  0.22248450  0.55168558  1
  H  H58  1  0.52527965  0.22232624  0.57873797  1
  H  H59  1  0.53571876  0.23772190  0.52491282  1
  H  H60  1  0.54124392  0.23647059  0.47151041  1
  H  H61  1  0.53981994  0.26466593  0.49361575  1
  H  H62  1  0.53448588  0.29994197  0.49823219  1
  H  H63  1  0.47179077  0.29208128  0.47932517  1
  H  H64  1  0.47737182  0.25584667  0.47579677  1
  H  H65  1  0.48397741  0.32522673  0.48740956  1
  H  H66  1  0.52916599  0.32911457  0.50049573  1
  H  H67  1  0.49979335  0.17730440  0.57910823  1
  H  H68  1  0.50884491  0.15386836  0.56373002  1
  H  H69  1  0.49102144  0.15505813  0.61825467  1
  H  H70  1  0.48336315  0.13053407  0.67112772  1
  H  H71  1  0.54426343  0.13166449  0.71234559  1
  H  H72  1  0.55175787  0.15566362  0.65827428  1
  H  H73  1  0.49255781  0.11013749  0.72837311  1
  H  H74  1  0.53654089  0.11231646  0.75402751  1
  H  H75  1  0.88302373  0.52411528  0.75079938  1
  H  H76  1  0.89551669  0.48078755  0.73256687  1
  H  H77  1  0.87846746  0.46468822  0.67878067  1
  H  H78  1  0.85544631  0.46470776  0.62047249  1
  H  H79  1  0.84320921  0.52677002  0.63957171  1
  H  H80  1  0.86622448  0.52697060  0.69817537  1
  H  H81  1  0.82825274  0.46706867  0.58475987  1
  H  H82  1  0.84968727  0.47513824  0.55886163  1
  H  H83  1  0.85949169  0.50401006  0.47176408  1
  H  H84  1  0.86044430  0.48037922  0.49424539  1
  H  H85  1  0.85958529  0.50174985  0.52565985  1
  H  H86  1  0.80105344  0.47451464  0.59768425  1
  H  H87  1  0.78840071  0.45926103  0.56256583  1
  H  H88  1  0.77777085  0.48194091  0.57922055  1
  H  H89  1  0.79360711  0.51716715  0.41004035  1
  H  H90  1  0.77527846  0.52144723  0.44810415  1
  H  H91  1  0.77629386  0.49881324  0.42118832  1
  H  H92  1  0.76124691  0.48797613  0.47514790  1
  H  H93  1  0.76268992  0.48254937  0.52856408  1
  H  H94  1  0.73432980  0.48292596  0.50626950  1
  H  H95  1  0.69902453  0.48682966  0.50197350  1
  H  H96  1  0.70436171  0.54992436  0.52082959  1
  H  H97  1  0.74071201  0.54569475  0.52431350  1
  H  H98  1  0.67118707  0.53606367  0.51195773  1
  H  H99  1  0.67070958  0.49067164  0.49878221  1
  H  H100  1  0.82042142  0.52586389  0.42042537  1
  H  H101  1  0.84408474  0.51767297  0.43625714  1
  H  H102  1  0.84282204  0.53532299  0.38127181  1
  H  H103  1  0.86715497  0.54355566  0.32845737  1
  H  H104  1  0.86795458  0.48251386  0.28819399  1
  H  H105  1  0.84392784  0.47447262  0.34187610  1
  H  H106  1  0.88849518  0.53463842  0.27266437  1
  H  H107  1  0.88551504  0.49120650  0.24325378  1
  H  H108  1  0.47677309  0.88975644  0.74520401  1
  H  H109  1  0.52211701  0.89305246  0.73510526  1
  H  H110  1  0.53680988  0.87680355  0.67879436  1
  H  H111  1  0.53579434  0.85409143  0.62007803  1
  H  H112  1  0.47344808  0.84577824  0.63963630  1
  H  H113  1  0.47436141  0.86826001  0.69922495  1
  H  H114  1  0.53247297  0.82727910  0.58463192  1
  H  H115  1  0.52512671  0.84920731  0.55866501  1
  H  H116  1  0.49670164  0.86079960  0.47143914  1
  H  H117  1  0.52028201  0.86028355  0.49413045  1
  H  H118  1  0.49887700  0.86075653  0.52536730  1
  H  H119  1  0.52411694  0.80058449  0.59772847  1
  H  H120  1  0.53898854  0.78707170  0.56269578  1
  H  H121  1  0.51604022  0.77772650  0.57932106  1
  H  H122  1  0.48119855  0.79574034  0.41013350  1
  H  H123  1  0.47629997  0.77769633  0.44826701  1
  H  H124  1  0.49892432  0.77729107  0.42137406  1
  H  H125  1  0.50915049  0.76155056  0.47553340  1
  H  H126  1  0.51451082  0.76266970  0.52900806  1
  H  H127  1  0.51301083  0.73437091  0.50655812  1
  H  H128  1  0.50783652  0.69945705  0.50227674  1
  H  H129  1  0.44495305  0.70890976  0.52056195  1
  H  H130  1  0.45062178  0.74494657  0.52408901  1
  H  H131  1  0.45798655  0.67426187  0.51159016  1
  H  H132  1  0.50324974  0.67274362  0.49744776  1
  H  H133  1  0.47340457  0.82301892  0.42038844  1
  H  H134  1  0.48230611  0.84620796  0.43610811  1
  H  H135  1  0.46462652  0.84584027  0.38071458  1
  H  H136  1  0.45715261  0.87028460  0.32707950  1
  H  H137  1  0.51827055  0.86734873  0.28752749  1
  H  H138  1  0.52551497  0.84348143  0.34224719  1
  H  H139  1  0.46680651  0.89018481  0.26853383  1
  H  H140  1  0.51131525  0.88660137  0.24710165  1
  H  H141  1  0.39746771  0.46455168  0.50036964  1
  H  H142  1  0.36114782  0.46335476  0.49928105  1
  H  H143  1  0.35828331  0.52716043  0.50026279  1
  H  H144  1  0.39444138  0.52807535  0.50046008  1
  H  H145  1  0.47496942  0.39136786  0.50020269  1
  H  H146  1  0.47880352  0.35527643  0.50050796  1
  H  H147  1  0.54221921  0.36142024  0.50026791  1
  H  H148  1  0.53807386  0.39763737  0.50054133  1
  H  H149  1  0.60249682  0.53685513  0.50007776  1
  H  H150  1  0.63869378  0.53805831  0.50122978  1
  H  H151  1  0.64139622  0.47424722  0.49938275  1
  H  H152  1  0.60508959  0.47329203  0.49881662  1
  H  H153  1  0.46134333  0.60317345  0.50045343  1
  H  H154  1  0.45735864  0.63933062  0.50095996  1
  H  H155  1  0.52078940  0.64492448  0.49906698  1
  H  H156  1  0.52447804  0.60864554  0.49845243  1
  H  H157  1  0.04383772  0.50267484  0.80699227  1
  H  H158  1  0.06703029  0.49968274  0.74918950  1
  H  H159  1  0.11579413  0.50004787  0.83446543  1
  H  H160  1  0.09233414  0.50423062  0.89207476  1
  H  H161  1  0.54508950  0.07001659  0.86301952  1
  H  H162  1  0.54854561  0.09390349  0.80615957  1
  H  H163  1  0.48672573  0.08728487  0.77689480  1
  H  H164  1  0.48376781  0.06356017  0.83377356  1
  H  H165  1  0.90783885  0.51086226  0.10744449  1
  H  H166  1  0.88403165  0.51038478  0.16497592  1
  H  H167  1  0.93231412  0.51166430  0.25127867  1
  H  H168  1  0.95583135  0.51117977  0.19384200  1
  H  H169  1  0.52483136  0.94407847  0.17824731  1
  H  H170  1  0.52113241  0.92064919  0.23591810  1
  H  H171  1  0.46696065  0.89988177  0.18260323  1
  H  H172  1  0.47107477  0.92310486  0.12495588  1
  H  H173  1  0.48426309  0.06318105  0.16350369  1
  H  H174  1  0.48577665  0.08677489  0.22117889  1
  H  H175  1  0.54802621  0.09439777  0.19820603  1
  H  H176  1  0.54607171  0.07087040  0.14078791  1
  H  H177  1  0.04425304  0.49475902  0.19082130  1
  H  H178  1  0.06736416  0.49072378  0.24867445  1
  H  H179  1  0.11534302  0.50782092  0.16986140  1
  H  H180  1  0.09205180  0.51091926  0.11147954  1
  H  H181  1  0.95597732  0.50930285  0.80637071  1
  H  H182  1  0.93265777  0.50877122  0.74851551  1
  H  H183  1  0.88403843  0.51181377  0.83381801  1
  H  H184  1  0.90765140  0.51111768  0.89173770  1
  H  H185  1  0.48635252  0.95608549  0.81364784  1
  H  H186  1  0.48081982  0.93304558  0.75649771  1
  H  H187  1  0.50727788  0.88588841  0.82783083  1
  H  H188  1  0.51183184  0.90899530  0.88563851  1
  C  C189  1  0.98982665  0.50801774  0.03904576  1
  C  C190  1  0.99024119  0.50892872  0.11501795  1
  C  C191  1  0.97993546  0.50833587  0.07742695  1
  C  C192  1  0.97832137  0.50660250  0.00015312  1
  C  C193  1  0.98974087  0.50825145  0.96126403  1
  C  C194  1  0.97979190  0.50866441  0.92287789  1
  C  C195  1  0.02042352  0.50914707  0.92294235  1
  C  C196  1  0.01052845  0.50909026  0.96129281  1
  C  C197  1  0.02208866  0.50988838  0.00016921  1
  C  C198  1  0.01062011  0.50874658  0.03905256  1
  C  C199  1  0.01013416  0.51031094  0.88539221  1
  C  C200  1  0.99003733  0.51003870  0.88536417  1
  C  C201  1  0.02058166  0.50841258  0.07739994  1
  C  C202  1  0.01034470  0.50892171  0.11501209  1
  C  C203  1  0.50920281  0.98968941  0.03906651  1
  C  C204  1  0.50892891  0.99014117  0.11498689  1
  C  C205  1  0.50807784  0.97982882  0.07743008  1
  C  C206  1  0.51016887  0.97811440  0.00014761  1
  C  C207  1  0.50889903  0.98969916  0.96127966  1
  C  C208  1  0.50762638  0.97994365  0.92280604  1
  C  C209  1  0.50925136  0.02054301  0.92321857  1
  C  C210  1  0.50908741  0.01051994  0.96139457  1
  C  C211  1  0.50895207  0.02208824  0.00023802  1
  C  C212  1  0.50956176  0.01051673  0.03907995  1
  C  C213  1  0.50862353  0.01044082  0.88545231  1
  C  C214  1  0.50793510  0.99033010  0.88526706  1
  C  C215  1  0.51024720  0.02049638  0.07730459  1
  C  C216  1  0.51006007  0.01024398  0.11493342  1
  C  C217  1  0.51115266  0.45673405  0.49112177  1
  C  C218  1  0.48883468  0.54361909  0.50845568  1
  C  C219  1  0.54248876  0.49267431  0.50648446  1
  C  C220  1  0.45749692  0.50781744  0.49304940  1
  C  C221  1  0.10758991  0.49884130  0.24764323  1
  C  C222  1  0.11111888  0.48321918  0.27305623  1
  C  C223  1  0.12503977  0.48349821  0.30694897  1
  C  C224  1  0.12892926  0.46613360  0.32997087  1
  C  C225  1  0.14183193  0.46602362  0.36306190  1
  C  C226  1  0.15130684  0.48345851  0.37408262  1
  C  C227  1  0.14810058  0.50082570  0.35169724  1
  C  C228  1  0.13508757  0.50091108  0.31872969  1
  C  C229  1  0.16541963  0.46697296  0.43277647  1
  C  C230  1  0.17767680  0.47302966  0.46879697  1
  C  C231  1  0.19846013  0.47246268  0.46544270  1
  C  C232  1  0.20982127  0.48067370  0.49735380  1
  C  C233  1  0.20061178  0.48954313  0.53183207  1
  C  C234  1  0.17979901  0.49059341  0.53354062  1
  C  C235  1  0.16805848  0.48219724  0.50247059  1
  C  C236  1  0.14584515  0.48292522  0.50296291  1
  C  C237  1  0.20831487  0.46239176  0.42966392  1
  C  C238  1  0.21371421  0.49790778  0.56457368  1
  C  C239  1  0.23193129  0.48032471  0.49512291  1
  C  C240  1  0.25920792  0.50177125  0.48612910  1
  C  C241  1  0.27162736  0.48532553  0.49139628  1
  C  C242  1  0.29191905  0.48763797  0.49330494  1
  C  C243  1  0.30069007  0.50642687  0.48943896  1
  C  C244  1  0.28768008  0.52277527  0.48294874  1
  C  C245  1  0.26730789  0.52051542  0.48110162  1
  C  C246  1  0.32197570  0.50880676  0.49160952  1
  C  C247  1  0.33518457  0.49357316  0.49697917  1
  C  C248  1  0.17021743  0.50032494  0.56978750  1
  C  C249  1  0.15695604  0.49168855  0.63407416  1
  C  C250  1  0.15045288  0.51130220  0.63837799  1
  C  C251  1  0.13683581  0.51609600  0.66857502  1
  C  C252  1  0.12953679  0.50167988  0.69587003  1
  C  C253  1  0.13695330  0.48202828  0.69149663  1
  C  C254  1  0.15065321  0.47718730  0.66127979  1
  C  C255  1  0.11502850  0.50721249  0.72669371  1
  C  C256  1  0.10793862  0.49451608  0.75521509  1
  C  C257  1  0.51694257  0.10624268  0.24891273  1
  C  C258  1  0.53300967  0.11172677  0.27122134  1
  C  C259  1  0.53203881  0.12512262  0.30595401  1
  C  C260  1  0.54920609  0.12904263  0.32922805  1
  C  C261  1  0.54876141  0.14166065  0.36275906  1
  C  C262  1  0.53093812  0.15075728  0.37409854  1
  C  C263  1  0.51369127  0.14736088  0.35178297  1
  C  C264  1  0.51417425  0.13469787  0.31827759  1
  C  C265  1  0.54692919  0.16477356  0.43287503  1
  C  C266  1  0.54051191  0.17690511  0.46898259  1
  C  C267  1  0.54038868  0.19770273  0.46573283  1
  C  C268  1  0.53181781  0.20892783  0.49772696  1
  C  C269  1  0.52311020  0.19964468  0.53199285  1
  C  C270  1  0.52271845  0.17881567  0.53348687  1
  C  C271  1  0.53160622  0.16717156  0.50251841  1
  C  C272  1  0.53165299  0.14494051  0.50295285  1
  C  C273  1  0.55005047  0.20774662  0.43000076  1
  C  C274  1  0.51419217  0.21265870  0.56464027  1
  C  C275  1  0.53130977  0.23101503  0.49545768  1
  C  C276  1  0.50877689  0.25785655  0.48599830  1
  C  C277  1  0.52475869  0.27042460  0.49133644  1
  C  C278  1  0.52167442  0.29067934  0.49334076  1
  C  C279  1  0.50255596  0.29920769  0.48938853  1
  C  C280  1  0.48670110  0.28605748  0.48283264  1
  C  C281  1  0.48972815  0.26571616  0.48095438  1
  C  C282  1  0.49927822  0.32042362  0.49150591  1
  C  C283  1  0.51383649  0.33395497  0.49705729  1
  C  C284  1  0.51321893  0.16916827  0.56957006  1
  C  C285  1  0.52214294  0.15622162  0.63412539  1
  C  C286  1  0.50278096  0.14952202  0.63819995  1
  C  C287  1  0.49839383  0.13595526  0.66856518  1
  C  C288  1  0.51296919  0.12892582  0.69630199  1
  C  C289  1  0.53237749  0.13648779  0.69196283  1
  C  C290  1  0.53679405  0.15011898  0.66157384  1
  C  C291  1  0.50793835  0.11466629  0.72770638  1
  C  C292  1  0.52134947  0.10727921  0.75515392  1
  C  C293  1  0.89179803  0.51043738  0.75304779  1
  C  C294  1  0.88835260  0.49510354  0.72720505  1
  C  C295  1  0.87440607  0.49569799  0.69333775  1
  C  C296  1  0.87090335  0.47839903  0.67021161  1
  C  C297  1  0.85801645  0.47840778  0.63711296  1
  C  C298  1  0.84819471  0.49592096  0.62610089  1
  C  C299  1  0.85104703  0.51325130  0.64853188  1
  C  C300  1  0.86402234  0.51320087  0.68159540  1
  C  C301  1  0.83452153  0.47946111  0.56745373  1
  C  C302  1  0.82214681  0.48545812  0.53130032  1
  C  C303  1  0.80137813  0.48482012  0.53445511  1
  C  C304  1  0.78984834  0.49299805  0.50240324  1
  C  C305  1  0.79884220  0.50188589  0.46797185  1
  C  C306  1  0.81962971  0.50293592  0.46635325  1
  C  C307  1  0.83154608  0.49456052  0.49756592  1
  C  C308  1  0.85373939  0.49524837  0.49718358  1
  C  C309  1  0.79172358  0.47475445  0.57016276  1
  C  C310  1  0.78552257  0.51028887  0.43522785  1
  C  C311  1  0.76775225  0.49270136  0.50459048  1
  C  C312  1  0.73997288  0.51421349  0.51392213  1
  C  C313  1  0.72801504  0.49777773  0.50861844  1
  C  C314  1  0.70766598  0.50008518  0.50673439  1
  C  C315  1  0.69836704  0.51886800  0.51063978  1
  C  C316  1  0.71090545  0.53522226  0.51722901  1
  C  C317  1  0.73134365  0.53295474  0.51906815  1
  C  C318  1  0.67700696  0.52105929  0.50838101  1
  C  C319  1  0.66462310  0.50553396  0.50275909  1
  C  C320  1  0.82899573  0.51272665  0.43019021  1
  C  C321  1  0.84254645  0.50411631  0.36583701  1
  C  C322  1  0.84872763  0.52365861  0.36156266  1
  C  C323  1  0.86224264  0.52834388  0.33129858  1
  C  C324  1  0.86978842  0.51387615  0.30392745  1
  C  C325  1  0.86268785  0.49430800  0.30831442  1
  C  C326  1  0.84908357  0.48958837  0.33854742  1
  C  C327  1  0.88424456  0.51914685  0.27305791  1
  C  C328  1  0.89143869  0.50619992  0.24472536  1
  C  C329  1  0.49188834  0.89430269  0.75183429  1
  C  C330  1  0.50731536  0.88759789  0.72893880  1
  C  C331  1  0.50582290  0.87442179  0.69397259  1
  C  C332  1  0.52287446  0.87000904  0.67047136  1
  C  C333  1  0.52227888  0.85739441  0.63701770  1
  C  C334  1  0.50440179  0.84878510  0.62603422  1
  C  C335  1  0.48724933  0.85268736  0.64861931  1
  C  C336  1  0.48789846  0.86538789  0.68208740  1
  C  C337  1  0.52031759  0.83430091  0.56726628  1
  C  C338  1  0.51393607  0.82230679  0.53114321  1
  C  C339  1  0.51384844  0.80150736  0.53446210  1
  C  C340  1  0.50521159  0.79049030  0.50253187  1
  C  C341  1  0.49664176  0.80003342  0.46805611  1
  C  C342  1  0.49628834  0.82087909  0.46633313  1
  C  C343  1  0.50512468  0.83227503  0.49742405  1
  C  C344  1  0.50520678  0.85450628  0.49695974  1
  C  C345  1  0.52361437  0.79127211  0.57022573  1
  C  C346  1  0.48778964  0.78723332  0.43536022  1
  C  C347  1  0.50463412  0.76839195  0.50488573  1
  C  C348  1  0.48201874  0.74210175  0.51397971  1
  C  C349  1  0.49793987  0.72904917  0.50876357  1
  C  C350  1  0.49484642  0.70886198  0.50682739  1
  C  C351  1  0.47574484  0.70080818  0.51053291  1
  C  C352  1  0.45989540  0.71444092  0.51706332  1
  C  C353  1  0.46296654  0.73472163  0.51894223  1
  C  C354  1  0.47303276  0.67954755  0.50812592  1
  C  C355  1  0.48855443  0.66679189  0.50211766  1
  C  C356  1  0.48678176  0.83082123  0.43014482  1
  C  C357  1  0.49579296  0.84371523  0.36560003  1
  C  C358  1  0.47645465  0.85093657  0.36086718  1
  C  C359  1  0.47216392  0.86441276  0.32993240  1
  C  C360  1  0.48683120  0.87084474  0.30221695  1
  C  C361  1  0.50624032  0.86292649  0.30754455  1
  C  C362  1  0.51054557  0.84936888  0.33843179  1
  C  C363  1  0.48208841  0.88491791  0.26988124  1
  C  C364  1  0.49612006  0.89215772  0.24419262  1
  C  C365  1  0.39877038  0.49639064  0.50132006  1
  C  C366  1  0.38875513  0.47821731  0.50054181  1
  C  C367  1  0.36840267  0.47760781  0.49960008  1
  C  C368  1  0.43719817  0.50134182  0.49994416  1
  C  C369  1  0.36664486  0.51331158  0.49960263  1
  C  C370  1  0.38696967  0.51389946  0.50049758  1
  C  C371  1  0.41966292  0.49736219  0.50222184  1
  C  C372  1  0.35654044  0.49506334  0.49853758  1
  C  C373  1  0.50609864  0.39724368  0.49967398  1
  C  C374  1  0.48967385  0.38463955  0.49994665  1
  C  C375  1  0.49194128  0.36434041  0.49962213  1
  C  C376  1  0.50523852  0.43602527  0.49563103  1
  C  C377  1  0.52742960  0.36793985  0.50003607  1
  C  C378  1  0.52514998  0.38818947  0.50028950  1
  C  C379  1  0.50360847  0.41807114  0.49834447  1
  C  C380  1  0.51093553  0.35520743  0.49868579  1
  C  C381  1  0.60099677  0.50504789  0.49850256  1
  C  C382  1  0.61115093  0.52316053  0.49983462  1
  C  C383  1  0.63155040  0.52374417  0.50101824  1
  C  C384  1  0.56268586  0.49950750  0.49978358  1
  C  C385  1  0.63289367  0.48801398  0.49966417  1
  C  C386  1  0.61262084  0.48744422  0.49887839  1
  C  C387  1  0.58010689  0.50393697  0.49754451  1
  C  C388  1  0.64318800  0.50614255  0.50133922  1
  C  C389  1  0.49327254  0.60317504  0.50009756  1
  C  C390  1  0.47433518  0.61251728  0.50044364  1
  C  C391  1  0.47216975  0.63285276  0.50094858  1
  C  C392  1  0.49464780  0.56434963  0.50387197  1
  C  C393  1  0.50770596  0.63578283  0.49949099  1
  C  C394  1  0.50983810  0.61552232  0.49913603  1
  C  C395  1  0.49586137  0.58235258  0.50124208  1
  C  C396  1  0.48889251  0.64526059  0.50115173  1
  C  C397  1  0.06641645  0.50396162  0.85405851  1
  C  C398  1  0.05967977  0.50254039  0.81283294  1
  C  C399  1  0.07272049  0.50067405  0.78046584  1
  C  C400  1  0.04133995  0.50769338  0.91612198  1
  C  C401  1  0.09997170  0.50060938  0.82845639  1
  C  C402  1  0.08697376  0.50314873  0.86062050  1
  C  C403  1  0.05324953  0.50606146  0.88761466  1
  C  C404  1  0.09328179  0.49919928  0.78745899  1
  C  C405  1  0.51371441  0.06667393  0.85513306  1
  C  C406  1  0.53228251  0.07448243  0.84480783  1
  C  C407  1  0.53423734  0.08749643  0.81266473  1
  C  C408  1  0.51056905  0.04151664  0.91708891  1
  C  C409  1  0.49958173  0.08396725  0.79594483  1
  C  C410  1  0.49772766  0.07090043  0.82825924  1
  C  C411  1  0.51193037  0.05355221  0.88879760  1
  C  C412  1  0.51794794  0.09301861  0.78754267  1
  C  C413  1  0.93356747  0.51044804  0.14605889  1
  C  C414  1  0.91302904  0.51077816  0.13911503  1
  C  C415  1  0.89982939  0.51035338  0.17127818  1
  C  C416  1  0.95899141  0.50877383  0.08423516  1
  C  C417  1  0.92679054  0.51133069  0.21981106  1
  C  C418  1  0.94002860  0.51112882  0.18757544  1
  C  C419  1  0.94694372  0.50960346  0.11263553  1
  C  C420  1  0.90627214  0.51004892  0.21258005  1
  C  C421  1  0.49913204  0.93405884  0.14543103  1
  C  C422  1  0.51249884  0.93392328  0.17883882  1
  C  C423  1  0.51039866  0.92089104  0.21095988  1
  C  C424  1  0.50507533  0.95906711  0.08400276  1
  C  C425  1  0.47986720  0.90928834  0.18176698  1
  C  C426  1  0.48222034  0.92212470  0.14905146  1
  C  C427  1  0.50229280  0.94711758  0.11200563  1
  C  C428  1  0.49444512  0.90769794  0.21290101  1
  C  C429  1  0.51465351  0.06667923  0.14557208  1
  C  C430  1  0.49800128  0.07064111  0.17058432  1
  C  C431  1  0.49897709  0.08356231  0.20316718  1
  C  C432  1  0.51178153  0.04145761  0.08359564  1
  C  C433  1  0.53395383  0.08760225  0.19105691  1
  C  C434  1  0.53283752  0.07482221  0.15808186  1
  C  C435  1  0.51313561  0.05353222  0.11183906  1
  C  C436  1  0.51695876  0.09248486  0.21469560  1
  C  C437  1  0.06650628  0.50304494  0.14654754  1
  C  C438  1  0.05994750  0.49731357  0.18623167  1
  C  C439  1  0.07294861  0.49505420  0.21864349  1
  C  C440  1  0.04153026  0.50712543  0.08424067  1
  C  C441  1  0.09969887  0.50505050  0.17445578  1
  C  C442  1  0.08682081  0.50660779  0.14176328  1
  C  C443  1  0.05338812  0.50533553  0.11287025  1
  C  C444  1  0.09326316  0.49920553  0.21386289  1
  C  C445  1  0.93353102  0.50965026  0.85375330  1
  C  C446  1  0.94015140  0.50934058  0.81234334  1
  C  C447  1  0.92702890  0.50907808  0.77988305  1
  C  C448  1  0.95883885  0.50853209  0.91596620  1
  C  C449  1  0.89984898  0.51120003  0.82775786  1
  C  C450  1  0.91296129  0.51065299  0.86018719  1
  C  C451  1  0.94683355  0.50909197  0.88739949  1
  C  C452  1  0.90639689  0.51002278  0.78659466  1
  C  C453  1  0.49948662  0.93420166  0.85431372  1
  C  C454  1  0.49074989  0.94061065  0.81682140  1
  C  C455  1  0.48768629  0.92768142  0.78477937  1
  C  C456  1  0.50536273  0.95913677  0.91582780  1
  C  C457  1  0.50287761  0.90135007  0.82436959  1
  C  C458  1  0.50522825  0.91413415  0.85697786  1
  C  C459  1  0.50271601  0.94728097  0.88759304  1
  C  C460  1  0.49420421  0.90776616  0.78704753  1
  O  O461  1  0.96037895  0.50371116  1.00014837  1
  O  O462  1  0.04014948  0.51205042  0.00016731  1
  O  O463  1  0.51258233  0.96002016  1.00013063  1
  O  O464  1  0.50780674  0.04031891  0.00023005  1
  O  O465  1  0.52857602  0.50059793  0.48654849  1
  O  O466  1  0.54306718  0.47983860  0.53460565  1
  O  O467  1  0.49846368  0.47037119  0.49375738  1
  O  O468  1  0.52946444  0.45623180  0.48431419  1
  O  O469  1  0.47135720  0.49973646  0.51286652  1
  O  O470  1  0.45704964  0.52063963  0.46487692  1
  O  O471  1  0.50151616  0.52998857  0.50564910  1
  O  O472  1  0.47054148  0.54408536  0.51553379  1
  O  O473  1  0.16413861  0.48426169  0.40600540  1
  O  O474  1  0.16953627  0.48626918  0.60353193  1
  O  O475  1  0.23920567  0.50005843  0.48591446  1
  O  O476  1  0.52961846  0.16337622  0.40631616  1
  O  O477  1  0.52718380  0.16877765  0.60350844  1
  O  O478  1  0.51130647  0.23788131  0.48582143  1
  O  O479  1  0.83538398  0.49679228  0.59409511  1
  O  O480  1  0.83003150  0.49876328  0.39630102  1
  O  O481  1  0.76001667  0.51244397  0.51404462  1
  O  O482  1  0.50301823  0.83619568  0.59381747  1
  O  O483  1  0.50076144  0.83100450  0.39631647  1
  O  O484  1  0.48459947  0.76201269  0.51417388  1
