# generated using pymatgen
data_Be4H142C186N6O25
_symmetry_space_group_name_H-M   'P 1'
_cell_length_a   54.69071572
_cell_length_b   56.01682015
_cell_length_c   36.88310184
_cell_angle_alpha   90.11091536
_cell_angle_beta   90.05930901
_cell_angle_gamma   126.20029270
_symmetry_Int_Tables_number   1
_chemical_formula_structural   Be4H142C186N6O25
_chemical_formula_sum   'Be4 H142 C186 N6 O25'
_cell_volume   91181.69316492
_cell_formula_units_Z   1
loop_
 _symmetry_equiv_pos_site_id
 _symmetry_equiv_pos_as_xyz
  1  'x, y, z'
loop_
 _atom_site_type_symbol
 _atom_site_label
 _atom_site_symmetry_multiplicity
 _atom_site_fract_x
 _atom_site_fract_y
 _atom_site_fract_z
 _atom_site_occupancy
  Be  Be0  1  0.70713801  0.35511190  0.54105657  1
  Be  Be1  1  0.68519149  0.38901519  0.46042090  1
  Be  Be2  1  0.68395782  0.38771174  0.53998559  1
  Be  Be3  1  0.70628880  0.35434123  0.46207062  1
  H  H4  1  0.10133073  0.08035161  0.01213078  1
  H  H5  1  0.08688228  0.04306290  0.02679473  1
  H  H6  1  0.06082710  0.00575699  0.99556867  1
  H  H7  1  0.02579073  0.98105102  0.97328699  1
  H  H8  1  0.02767717  0.97998487  0.02086963  1
  H  H9  1  0.02812629  0.09582990  0.96178493  1
  H  H10  1  0.98935391  0.06533679  0.95842239  1
  H  H11  1  0.08624250  0.10601913  0.02653629  1
  H  H12  1  0.05987536  0.11288036  0.01339580  1
  H  H13  1  0.08082855  0.10922644  0.98004577  1
  H  H14  1  0.94775069  0.00018070  0.02189579  1
  H  H15  1  0.94593138  0.00216782  0.97420734  1
  H  H16  1  0.95571658  0.03272370  0.00177741  1
  H  H17  1  0.97762041  0.95883501  0.99941968  1
  H  H18  1  0.95663071  0.96858521  0.97244531  1
  H  H19  1  0.87351009  0.31612284  0.78009362  1
  H  H20  1  0.80654081  0.26323366  0.79511266  1
  H  H21  1  0.79654983  0.23038159  0.84404514  1
  H  H22  1  0.81338704  0.21526833  0.89514319  1
  H  H23  1  0.90583966  0.29068425  0.87678870  1
  H  H24  1  0.88915221  0.30582469  0.82504223  1
  H  H25  1  0.83817309  0.20056355  0.92689349  1
  H  H26  1  0.83321312  0.22520128  0.94996435  1
  H  H27  1  0.86314976  0.26858852  0.02909537  1
  H  H28  1  0.83255720  0.23828917  0.00523829  1
  H  H29  1  0.86284702  0.26886778  0.98107884  1
  H  H30  1  0.87097707  0.19633683  0.91333723  1
  H  H31  1  0.85646211  0.16572366  0.94254294  1
  H  H32  1  0.89539651  0.18850808  0.93089438  1
  H  H33  1  0.92823505  0.24296884  0.08233051  1
  H  H34  1  0.94705368  0.23565061  0.04982595  1
  H  H35  1  0.91421309  0.20626499  0.07193379  1
  H  H36  1  0.90777497  0.17982092  0.02476480  1
  H  H37  1  0.90187713  0.17491155  0.97712752  1
  H  H38  1  0.91915456  0.15175339  0.99950249  1
  H  H39  1  0.94725110  0.13031056  0.99979655  1
  H  H40  1  0.03101631  0.21712458  0.98478753  1
  H  H41  1  1.00241071  0.23865743  0.98313382  1
  H  H42  1  0.03251367  0.17473027  0.98762652  1
  H  H43  1  0.97570486  0.11687615  0.01903332  1
  H  H44  1  0.92357229  0.27457509  0.07305016  1
  H  H45  1  0.89824961  0.28171905  0.05617236  1
  H  H46  1  0.91832593  0.30452855  0.10792208  1
  H  H47  1  0.91027337  0.32968212  0.15592559  1
  H  H48  1  0.82773519  0.24584677  0.18737836  1
  H  H49  1  0.83644267  0.22086938  0.13949835  1
  H  H50  1  0.87925205  0.32924251  0.20395690  1
  H  H51  1  0.82786890  0.26689372  0.23245646  1
  H  H52  1  0.47715729  0.20098724  0.22737119  1
  H  H53  1  0.49260845  0.15612366  0.21838426  1
  H  H54  1  0.46516782  0.11945518  0.16938397  1
  H  H55  1  0.43216767  0.10063441  0.11581278  1
  H  H56  1  0.41811620  0.16825236  0.12902686  1
  H  H57  1  0.45149917  0.18763534  0.18246891  1
  H  H58  1  0.39040966  0.08223028  0.07588738  1
  H  H59  1  0.42497274  0.11079083  0.05546164  1
  H  H60  1  0.44333839  0.15026484  0.97315219  1
  H  H61  1  0.44013467  0.12158024  0.99770049  1
  H  H62  1  0.44446842  0.15147470  0.02116071  1
  H  H63  1  0.35017654  0.07416144  0.08959592  1
  H  H64  1  0.32850110  0.04358506  0.05978815  1
  H  H65  1  0.31575927  0.06509016  0.07207643  1
  H  H66  1  0.34445194  0.11811996  0.92085604  1
  H  H67  1  0.31757846  0.11024342  0.95462553  1
  H  H68  1  0.31528052  0.08121864  0.93185354  1
  H  H69  1  0.29111844  0.05709020  0.97943643  1
  H  H70  1  0.29223159  0.05121155  0.02646422  1
  H  H71  1  0.24712042  0.03126003  0.00624999  1
  H  H72  1  0.19448225  0.01326165  0.00279395  1
  H  H73  1  0.22124697  0.10213511  0.02093593  1
  H  H74  1  0.27507196  0.12037976  0.02346539  1
  H  H75  1  0.16919795  0.06410627  0.01218719  1
  H  H76  1  0.15039928  0.00022627  1.00087426  1
  H  H77  1  0.38591480  0.14936465  0.92826243  1
  H  H78  1  0.42145189  0.16074836  0.94523991  1
  H  H79  1  0.42138011  0.18109505  0.89254299  1
  H  H80  1  0.45567924  0.20983626  0.84215196  1
  H  H81  1  0.44968437  0.13309322  0.80585465  1
  H  H82  1  0.41587823  0.10461172  0.85729665  1
  H  H83  1  0.48464643  0.21540922  0.79091164  1
  H  H84  1  0.48290561  0.16171860  0.76470191  1
  H  H85  1  0.66948504  0.57278144  0.77337673  1
  H  H86  1  0.72374184  0.57079304  0.79250857  1
  H  H87  1  0.75473526  0.59714740  0.84254752  1
  H  H88  1  0.76917573  0.62992999  0.89527794  1
  H  H89  1  0.69509704  0.63537686  0.87283277  1
  H  H90  1  0.68071238  0.60281043  0.81927201  1
  H  H91  1  0.78358637  0.66796654  0.92907169  1
  H  H92  1  0.75556842  0.63394179  0.95017108  1
  H  H93  1  0.71267232  0.61404352  0.03014545  1
  H  H94  1  0.74312792  0.61867346  0.00648131  1
  H  H95  1  0.71224179  0.61310064  0.98213852  1
  H  H96  1  0.78920605  0.70550442  0.91425762  1
  H  H97  1  0.82051271  0.72755973  0.94380606  1
  H  H98  1  0.79763545  0.73894328  0.93102647  1
  H  H99  1  0.74140739  0.70969755  0.08167038  1
  H  H100  1  0.74927092  0.73604172  0.04805692  1
  H  H101  1  0.77912909  0.73875490  0.07110983  1
  H  H102  1  0.80344488  0.76347034  0.02282452  1
  H  H103  1  0.80974214  0.76186614  0.97593425  1
  H  H104  1  0.82888817  0.80517936  0.99366440  1
  H  H105  1  0.84625084  0.85650542  0.99640162  1
  H  H106  1  0.75445526  0.82837822  0.98094096  1
  H  H107  1  0.73674008  0.77591667  0.97795256  1
  H  H108  1  0.79451611  0.88101025  0.98855025  1
  H  H109  1  0.85816434  0.89913686  0.01276728  1
  H  H110  1  0.70799283  0.66776229  0.07189380  1
  H  H111  1  0.70109610  0.63400133  0.05842058  1
  H  H112  1  0.67931253  0.63223003  0.11308319  1
  H  H113  1  0.65440697  0.59619336  0.16265052  1
  H  H114  1  0.73861486  0.60796797  0.18571099  1
  H  H115  1  0.76436492  0.64756520  0.13949495  1
  H  H116  1  0.65603214  0.56337713  0.20914333  1
  H  H117  1  0.72145783  0.59414108  0.23721138  1
  H  H118  1  0.72224825  0.39677813  0.56924315  1
  H  H119  1  0.72206788  0.39496064  0.43109394  1
  H  H120  1  0.72910869  0.34503545  0.50117835  1
  H  H121  1  0.68755133  0.41854584  0.50059911  1
  H  H122  1  0.81216453  0.35797310  0.62468992  1
  H  H123  1  0.73590868  0.29597465  0.69182357  1
  H  H124  1  0.70416462  0.30719163  0.65882369  1
  H  H125  1  0.77921899  0.36596047  0.58831004  1
  H  H126  1  0.58016238  0.30598661  0.34977349  1
  H  H127  1  0.58975550  0.23946794  0.38809155  1
  H  H128  1  0.62926782  0.27558747  0.43162896  1
  H  H129  1  0.61838279  0.34154057  0.39477873  1
  H  H130  1  0.55898860  0.29017709  0.61979561  1
  H  H131  1  0.61181593  0.25850409  0.64632311  1
  H  H132  1  0.64998883  0.29220968  0.60054639  1
  H  H133  1  0.59807106  0.32507962  0.57553394  1
  H  H134  1  0.73737989  0.50993793  0.34134100  1
  H  H135  1  0.64074118  0.44471869  0.34627339  1
  H  H136  1  0.64799977  0.41285204  0.38454547  1
  H  H137  1  0.74476107  0.47639275  0.37523307  1
  H  H138  1  0.73532232  0.49842164  0.68023547  1
  H  H139  1  0.64613258  0.45677640  0.63525941  1
  H  H140  1  0.65272435  0.42402504  0.59785619  1
  H  H141  1  0.74065653  0.46365277  0.64568339  1
  H  H142  1  0.80709619  0.34677168  0.38650809  1
  H  H143  1  0.74100888  0.30847818  0.30057097  1
  H  H144  1  0.70928434  0.31876998  0.33522823  1
  H  H145  1  0.77379811  0.35401070  0.42294409  1
  C  C146  1  0.04465503  0.06817462  0.00328038  1
  C  C147  1  0.01483790  0.05754640  0.99458168  1
  C  C148  1  0.05244012  0.04771274  0.00728444  1
  C  C149  1  0.08158029  0.05754923  0.01579923  1
  C  C150  1  -0.00144914  0.00616361  0.99583557  1
  C  C151  1  0.02941240  0.01693426  1.00074093  1
  C  C152  1  0.99123402  0.02707920  0.99630351  1
  C  C153  1  0.03647599  0.99521152  0.99753480  1
  C  C154  1  0.00858771  0.07822328  0.97784389  1
  C  C155  1  0.06894239  0.10048250  0.00622724  1
  C  C156  1  0.95865281  0.01510417  0.99848747  1
  C  C157  1  0.97624906  0.97640913  0.98954440  1
  C  C158  1  0.84879369  0.30162904  0.77788171  1
  C  C159  1  0.83085850  0.27728453  0.80059871  1
  C  C160  1  0.84133708  0.26919359  0.83027977  1
  C  C161  1  0.82052779  0.24367225  0.85118328  1
  C  C162  1  0.82998326  0.23535242  0.88022198  1
  C  C163  1  0.86075813  0.25252485  0.88952366  1
  C  C164  1  0.88193174  0.27767030  0.86933097  1
  C  C165  1  0.87244748  0.28601776  0.84026128  1
  C  C166  1  0.85025528  0.22172517  0.94176979  1
  C  C167  1  0.86816298  0.22239019  0.97324990  1
  C  C168  1  0.88203749  0.20772413  0.97030073  1
  C  C169  1  0.89985409  0.20949845  0.99943730  1
  C  C170  1  0.90547560  0.22742773  0.03009891  1
  C  C171  1  0.89321820  0.24368098  0.03127660  1
  C  C172  1  0.87331114  0.24021064  0.00378870  1
  C  C173  1  0.85739807  0.25477047  0.00500307  1
  C  C174  1  0.87607211  0.18883727  0.93772402  1
  C  C175  1  0.92469016  0.22833412  0.05998228  1
  C  C176  1  0.91228790  0.19160294  0.99885986  1
  C  C177  1  0.95915464  0.19694724  0.99270324  1
  C  C178  1  0.94375157  0.16642650  0.99691588  1
  C  C179  1  0.95974634  0.15422121  0.99735275  1
  C  C180  1  0.99170427  0.17198572  0.99405976  1
  C  C181  1  0.00651527  0.20278744  0.98839582  1
  C  C182  1  0.99058899  0.21499908  0.98764545  1
  C  C183  1  0.00856246  0.15960021  0.99462946  1
  C  C184  1  0.99679894  0.13066088  1.00313367  1
  C  C185  1  0.90028930  0.26384866  0.06296934  1
  C  C186  1  0.87672237  0.26127750  0.11936095  1
  C  C187  1  0.89803343  0.29179073  0.12464255  1
  C  C188  1  0.89380531  0.30586921  0.15218699  1
  C  C189  1  0.86846602  0.29004900  0.17573872  1
  C  C190  1  0.84780810  0.25891252  0.17039929  1
  C  C191  1  0.85228047  0.24477510  0.14310345  1
  C  C192  1  0.86385710  0.30513284  0.20316458  1
  C  C193  1  0.84093118  0.29092478  0.22898399  1
  C  C194  1  0.48908625  0.19097645  0.23232061  1
  C  C195  1  0.48209558  0.16702182  0.21113372  1
  C  C196  1  0.46192445  0.15560879  0.18036097  1
  C  C197  1  0.45535185  0.13066073  0.16043391  1
  C  C198  1  0.43676780  0.12004842  0.12993184  1
  C  C199  1  0.42386448  0.13406337  0.11797286  1
  C  C200  1  0.42886189  0.15790057  0.13782522  1
  C  C201  1  0.44767572  0.16867009  0.16813038  1
  C  C202  1  0.40217608  0.10400981  0.06263631  1
  C  C203  1  0.38443370  0.10285761  0.03038347  1
  C  C204  1  0.35249555  0.08579365  0.03286201  1
  C  C205  1  0.33596593  0.08581084  0.00345264  1
  C  C206  1  0.35082829  0.10366538  0.97250938  1
  C  C207  1  0.38275905  0.12098125  0.97060919  1
  C  C208  1  0.39962555  0.11994951  0.99895975  1
  C  C209  1  0.43343813  0.13669144  0.99752931  1
  C  C210  1  0.33604729  0.06641450  0.06512381  1
  C  C211  1  0.33134067  0.10347483  0.94354438  1
  C  C212  1  0.30207692  0.06829515  0.00533283  1
  C  C213  1  0.26457916  0.07726738  0.01351949  1
  C  C214  1  0.24176810  0.04711485  0.00858998  1
  C  C215  1  0.21166138  0.03688668  0.00705069  1
  C  C216  1  0.20335064  0.05643101  0.01081111  1
  C  C217  1  0.22700325  0.08668817  0.01728904  1
  C  C218  1  0.25713586  0.09700412  0.01867359  1
  C  C219  1  0.17212470  0.04664857  0.00831772  1
  C  C220  1  0.14811282  0.01825961  0.00202247  1
  C  C221  1  0.39857487  0.14110534  0.93843833  1
  C  C222  1  0.41839433  0.14157520  0.87988034  1
  C  C223  1  0.42854403  0.17082274  0.87458375  1
  C  C224  1  0.44740879  0.18687864  0.84562654  1
  C  C225  1  0.45657162  0.17442400  0.82042873  1
  C  C226  1  0.44421411  0.14404684  0.82514998  1
  C  C227  1  0.42524488  0.12791293  0.85417673  1
  C  C228  1  0.47710647  0.19251190  0.79174004  1
  C  C229  1  0.48869047  0.18407296  0.76508273  1
  C  C230  1  0.68536533  0.56701714  0.77198812  1
  C  C231  1  0.70916429  0.57788923  0.79671297  1
  C  C232  1  0.71647020  0.59703198  0.82690971  1
  C  C233  1  0.74153914  0.60538275  0.84925693  1
  C  C234  1  0.74942468  0.62351991  0.87916125  1
  C  C235  1  0.73222033  0.63377072  0.88788651  1
  C  C236  1  0.70784934  0.62667948  0.86594784  1
  C  C237  1  0.69991057  0.60844696  0.83595876  1
  C  C238  1  0.76139314  0.65574552  0.94267094  1
  C  C239  1  0.76136821  0.67264356  0.97426370  1
  C  C240  1  0.77728899  0.70357723  0.97092990  1
  C  C241  1  0.77566201  0.71929156  0.99956856  1
  C  C242  1  0.75708250  0.70433070  0.03012519  1
  C  C243  1  0.73975353  0.67315996  0.03170352  1
  C  C244  1  0.74278161  0.65715088  0.00466392  1
  C  C245  1  0.72687449  0.62426067  0.00608062  1
  C  C246  1  0.79693621  0.71958444  0.93849108  1
  C  C247  1  0.75647103  0.72283732  0.05915839  1
  C  C248  1  0.79225403  0.75214282  0.99706174  1
  C  C249  1  0.78138560  0.78721080  0.98754515  1
  C  C250  1  0.81222557  0.80986885  0.99182204  1
  C  C251  1  0.82207774  0.83913038  0.99316209  1
  C  C252  1  0.80140723  0.84618329  0.99022301  1
  C  C253  1  0.77053890  0.82305790  0.98409824  1
  C  C254  1  0.76058952  0.79377394  0.98256272  1
  C  C255  1  0.81156555  0.87707336  0.99312500  1
  C  C256  1  0.83995620  0.89906918  1.00087329  1
  C  C257  1  0.71921285  0.65749189  0.06364859  1
  C  C258  1  0.72298346  0.64045035  0.12175223  1
  C  C259  1  0.69220452  0.62667064  0.12881742  1
  C  C260  1  0.67830808  0.60666823  0.15709879  1
  C  C261  1  0.69462173  0.59962644  0.17902744  1
  C  C262  1  0.72587644  0.61431112  0.17130638  1
  C  C263  1  0.74012382  0.63556332  0.14432024  1
  C  C264  1  0.68068216  0.57792744  0.20715409  1
  C  C265  1  0.69779011  0.57521960  0.23251267  1
  C  C266  1  0.72019316  0.34431218  0.60256155  1
  C  C267  1  0.70120260  0.42199303  0.40318437  1
  C  C268  1  0.70126512  0.42158407  0.59715968  1
  C  C269  1  0.72021001  0.34431024  0.40087400  1
  C  C270  1  0.65082026  0.33211913  0.55830187  1
  C  C271  1  0.65080337  0.33314264  0.44220817  1
  C  C272  1  0.78837868  0.34678287  0.63165201  1
  C  C273  1  0.77671103  0.32757656  0.66192007  1
  C  C274  1  0.74545291  0.31230411  0.67012305  1
  C  C275  1  0.72780809  0.31829566  0.65154261  1
  C  C276  1  0.83607162  0.30819549  0.75143147  1
  C  C277  1  0.77012506  0.35136915  0.61168050  1
  C  C278  1  0.79502776  0.32343194  0.68337272  1
  C  C279  1  0.80968759  0.31934220  0.70424954  1
  C  C280  1  0.82450626  0.31428649  0.72801668  1
  C  C281  1  0.74020538  0.33826320  0.62261271  1
  C  C282  1  0.59112333  0.29947460  0.36774428  1
  C  C283  1  0.58332402  0.27046304  0.36394770  1
  C  C284  1  0.59684833  0.26220586  0.38894703  1
  C  C285  1  0.61851601  0.28221769  0.41361306  1
  C  C286  1  0.50986240  0.20311727  0.26021108  1
  C  C287  1  0.61221443  0.31920274  0.39307441  1
  C  C288  1  0.56321766  0.25083655  0.33698635  1
  C  C289  1  0.54612837  0.23459942  0.31243731  1
  C  C290  1  0.52750584  0.21750514  0.28546434  1
  C  C291  1  0.62670823  0.31107594  0.41585820  1
  C  C292  1  0.57934201  0.29116228  0.61600243  1
  C  C293  1  0.58284583  0.27231675  0.63736535  1
  C  C294  1  0.60884789  0.27301768  0.63039329  1
  C  C295  1  0.62991389  0.29153369  0.60463747  1
  C  C296  1  0.50803562  0.20326210  0.73859338  1
  C  C297  1  0.60104144  0.31042794  0.59099400  1
  C  C298  1  0.56191276  0.25371772  0.66415466  1
  C  C299  1  0.54440887  0.23740666  0.68820384  1
  C  C300  1  0.52549339  0.21964925  0.71438727  1
  C  C301  1  0.62666816  0.31091924  0.58500174  1
  C  C302  1  0.71795153  0.48811962  0.34985302  1
  C  C303  1  0.68849474  0.47915229  0.34000014  1
  C  C304  1  0.66342847  0.45156242  0.35320255  1
  C  C305  1  0.66751903  0.43381989  0.37435349  1
  C  C306  1  0.68682248  0.55100644  0.25410904  1
  C  C307  1  0.72201971  0.46957603  0.36905857  1
  C  C308  1  0.68438016  0.49685082  0.31789447  1
  C  C309  1  0.68260497  0.51307790  0.29748603  1
  C  C310  1  0.68269658  0.53168301  0.27486864  1
  C  C311  1  0.69678733  0.44237912  0.38147785  1
  C  C312  1  0.71703237  0.48152289  0.66276308  1
  C  C313  1  0.69009553  0.47977007  0.66066944  1
  C  C314  1  0.66698838  0.45840554  0.63680851  1
  C  C315  1  0.67063576  0.44014112  0.61617119  1
  C  C316  1  0.68111744  0.54833496  0.74473195  1
  C  C317  1  0.72010475  0.46239293  0.64319611  1
  C  C318  1  0.68601835  0.49816258  0.68135860  1
  C  C319  1  0.68298030  0.51416158  0.70055699  1
  C  C320  1  0.68008749  0.53158714  0.72191015  1
  C  C321  1  0.69710217  0.44171752  0.61938292  1
  C  C322  1  0.78563734  0.34080759  0.37548745  1
  C  C323  1  0.77737688  0.32891377  0.33995919  1
  C  C324  1  0.74861928  0.31979539  0.32670940  1
  C  C325  1  0.73086875  0.32520019  0.34616922  1
  C  C326  1  0.83425221  0.30551200  0.25209373  1
  C  C327  1  0.76709534  0.34491559  0.39566947  1
  C  C328  1  0.79606661  0.32534776  0.31838489  1
  C  C329  1  0.81048751  0.32090582  0.29755679  1
  C  C330  1  0.82422393  0.31437373  0.27397789  1
  C  C331  1  0.74021152  0.33838454  0.38052485  1
  N  N332  1  1.00046614  0.09283361  0.00445421  1
  N  N333  1  0.01113652  0.11831136  -0.00807608  1
  N  N334  1  0.11351453  0.02755663  -0.00331640  1
  N  N335  1  0.11740251  0.00870924  -0.00266303  1
  N  N336  1  0.90628035  0.94937026  -0.00138504  1
  N  N337  1  0.89304839  0.95529343  0.01420822  1
  O  O338  1  0.87179970  0.24564294  0.91742389  1
  O  O339  1  0.87908815  0.24637015  0.09210246  1
  O  O340  1  0.94503742  0.21045337  0.99307809  1
  O  O341  1  0.40515066  0.12530491  0.08864841  1
  O  O342  1  0.40123975  0.12532534  0.90897304  1
  O  O343  1  0.29451181  0.08873851  0.01357181  1
  O  O344  1  0.73866945  0.65142258  0.91706728  1
  O  O345  1  0.73768136  0.65946931  0.09363333  1
  O  O346  1  0.77040527  0.75819414  0.98802687  1
  O  O347  1  0.65052800  0.35337870  0.54706231  1
  O  O348  1  0.72765131  0.35114094  0.56902177  1
  O  O349  1  0.69887107  0.34147862  0.61901408  1
  O  O350  1  0.68520317  0.41194090  0.43226254  1
  O  O351  1  0.71949709  0.41763137  0.39153129  1
  O  O352  1  0.66767390  0.32703529  0.45620643  1
  O  O353  1  0.66945053  0.32693486  0.54851670  1
  O  O354  1  0.68227769  0.40828123  0.57068739  1
  O  O355  1  0.72222384  0.41982512  0.60555653  1
  O  O356  1  0.72520700  0.34747551  0.43538236  1
  O  O357  1  0.70106728  0.34510424  0.38408942  1
  O  O358  1  0.65199757  0.35603445  0.44897303  1
  O  O359  1  0.71118047  0.38534861  0.54733985  1
  O  O360  1  0.71163042  0.38517576  0.45381438  1
  O  O361  1  0.71506229  0.35025122  0.50154949  1
  O  O362  1  0.68313147  0.39902771  0.50046476  1
