# generated using pymatgen
data_Be2H89(C57O7)2
_symmetry_space_group_name_H-M   'P 1'
_cell_length_a   70.63176144
_cell_length_b   70.23607012
_cell_length_c   35.63093267
_cell_angle_alpha   90.05800230
_cell_angle_beta   90.18098815
_cell_angle_gamma   125.22116097
_symmetry_Int_Tables_number   1
_chemical_formula_structural   Be2H89(C57O7)2
_chemical_formula_sum   'Be4 H178 C228 O28'
_cell_volume   144400.44523154
_cell_formula_units_Z   2
loop_
 _symmetry_equiv_pos_site_id
 _symmetry_equiv_pos_as_xyz
  1  'x, y, z'
loop_
 _atom_site_type_symbol
 _atom_site_label
 _atom_site_symmetry_multiplicity
 _atom_site_fract_x
 _atom_site_fract_y
 _atom_site_fract_z
 _atom_site_occupancy
  Be  Be0  1  0.68975349  0.35326674  0.54226484  1
  Be  Be1  1  0.67237787  0.38036680  0.45873489  1
  Be  Be2  1  0.67253003  0.38022368  0.54345312  1
  Be  Be3  1  0.68948535  0.35311514  0.45991992  1
  H  H4  1  0.98536298  0.06823972  0.04901859  1
  H  H5  1  0.04352297  0.09260986  0.95633420  1
  H  H6  1  0.06520025  0.08770701  0.94906749  1
  H  H7  1  0.05542046  0.08728712  0.99494085  1
  H  H8  1  0.06779647  0.06742591  1.00337879  1
  H  H9  1  0.05641934  0.03868139  0.01815588  1
  H  H10  1  0.01288611  0.07965815  0.93269283  1
  H  H11  1  0.98452543  0.05413680  0.92695328  1
  H  H12  1  0.04569556  0.00888192  0.98387630  1
  H  H13  1  0.02572223  0.98920933  0.95011291  1
  H  H14  1  0.01642340  0.98775833  0.99667779  1
  H  H15  1  0.95592392  0.99437759  0.94913138  1
  H  H16  1  0.96189663  0.01628658  0.91648742  1
  H  H17  1  0.96288499  0.02139751  0.96529925  1
  H  H18  1  0.96965449  0.97805663  0.92184563  1
  H  H19  1  0.99018306  0.97289688  0.93778139  1
  H  H20  1  0.94962771  0.93782396  0.93299402  1
  H  H21  1  0.95680455  0.96345017  0.04605780  1
  H  H22  1  0.09612816  0.03777461  0.92682948  1
  H  H23  1  0.09548204  0.06837542  0.03156216  1
  H  H24  1  0.91410265  0.89997841  0.95134698  1
  H  H25  1  0.92714609  0.92248562  0.06662554  1
  H  H26  1  0.13466507  0.04642406  0.94446311  1
  H  H27  1  0.13564378  0.08155517  0.04413273  1
  H  H28  1  0.96989285  0.07341395  0.93392311  1
  H  H29  1  0.95391772  0.09506446  0.95422363  1
  H  H30  1  0.96465132  0.08576813  0.06895836  1
  H  H31  1  0.83675002  0.33868795  0.77973038  1
  H  H32  1  0.78647192  0.29591751  0.79597127  1
  H  H33  1  0.77985102  0.27044683  0.84554627  1
  H  H34  1  0.79363800  0.25741648  0.89605558  1
  H  H35  1  0.86391475  0.31697780  0.87693396  1
  H  H36  1  0.85028697  0.32972125  0.82503583  1
  H  H37  1  0.81251682  0.24468692  0.92567399  1
  H  H38  1  0.80868285  0.26418578  0.95021506  1
  H  H39  1  0.83269153  0.29974769  0.02984666  1
  H  H40  1  0.80871921  0.27546112  0.00712909  1
  H  H41  1  0.83134886  0.29867446  0.98029198  1
  H  H42  1  0.83586143  0.23904500  0.91273220  1
  H  H43  1  0.82674385  0.21597734  0.94454971  1
  H  H44  1  0.85595262  0.23392185  0.92944758  1
  H  H45  1  0.88404849  0.27990976  0.08443188  1
  H  H46  1  0.89847966  0.27438674  0.04998829  1
  H  H47  1  0.87427684  0.25109359  0.07402321  1
  H  H48  1  0.87019403  0.23053875  0.02507317  1
  H  H49  1  0.86486450  0.22625941  0.97593758  1
  H  H50  1  0.88061589  0.21007526  0.99765236  1
  H  H51  1  0.90487849  0.19556671  0.00037289  1
  H  H52  1  0.96606593  0.26540515  0.98461214  1
  H  H53  1  0.94150133  0.28006670  0.98122863  1
  H  H54  1  0.96953803  0.23260057  0.98840440  1
  H  H55  1  0.93029798  0.18779903  0.02541269  1
  H  H56  1  0.87874163  0.30376618  0.07565681  1
  H  H57  1  0.85882985  0.30921799  0.05837340  1
  H  H58  1  0.87447803  0.32729708  0.11014628  1
  H  H59  1  0.86740294  0.34855920  0.15634483  1
  H  H60  1  0.80387360  0.28345943  0.18958098  1
  H  H61  1  0.81104987  0.26263524  0.14258331  1
  H  H62  1  0.84326186  0.34921253  0.20585663  1
  H  H63  1  0.80225727  0.30027339  0.23200428  1
  H  H64  1  0.51218333  0.21971128  0.22771444  1
  H  H65  1  0.52371438  0.18344506  0.21963049  1
  H  H66  1  0.50203854  0.15392961  0.16920796  1
  H  H67  1  0.47495208  0.13794397  0.11614942  1
  H  H68  1  0.46399876  0.19194804  0.12968761  1
  H  H69  1  0.49109104  0.20815998  0.18294818  1
  H  H70  1  0.43884190  0.12176377  0.07887410  1
  H  H71  1  0.46471883  0.14241162  0.05508082  1
  H  H72  1  0.47915336  0.17670152  0.97411277  1
  H  H73  1  0.47661388  0.15301240  0.99656106  1
  H  H74  1  0.47964119  0.17577828  0.02369514  1
  H  H75  1  0.40782623  0.11392716  0.09141302  1
  H  H76  1  0.39158630  0.09111792  0.05843183  1
  H  H77  1  0.38127498  0.10743995  0.07456558  1
  H  H78  1  0.40354299  0.15367650  0.92055495  1
  H  H79  1  0.38309129  0.14754694  0.95571036  1
  H  H80  1  0.38107423  0.12461705  0.93102901  1
  H  H81  1  0.36276957  0.10423789  0.98002249  1
  H  H82  1  0.36330977  0.10048177  0.02919016  1
  H  H83  1  0.32882541  0.08353056  0.00576813  1
  H  H84  1  0.28776716  0.06798864  0.00393135  1
  H  H85  1  0.30490003  0.13727449  0.01939952  1
  H  H86  1  0.34655446  0.15297972  0.02198753  1
  H  H87  1  0.26443674  0.10435387  0.01924309  1
  H  H88  1  0.25421809  0.05888768  -0.01448123  1
  H  H89  1  0.43544420  0.17608892  0.92603132  1
  H  H90  1  0.46242206  0.18475282  0.94489480  1
  H  H91  1  0.46438478  0.20140096  0.89193861  1
  H  H92  1  0.49355068  0.22513397  0.84397603  1
  H  H93  1  0.49062738  0.16487946  0.80678427  1
  H  H94  1  0.46212775  0.14146705  0.85644650  1
  H  H95  1  0.51664778  0.23041302  0.79361650  1
  H  H96  1  0.51776760  0.18975644  0.76300737  1
  H  H97  1  0.64659215  0.52607834  0.77182623  1
  H  H98  1  0.68890241  0.52565265  0.79435927  1
  H  H99  1  0.71219985  0.54657136  0.84401821  1
  H  H100  1  0.72484595  0.57465960  0.89575152  1
  H  H101  1  0.66758845  0.57941449  0.87316127  1
  H  H102  1  0.65522393  0.55184921  0.81989660  1
  H  H103  1  0.73737978  0.60637207  0.92686642  1
  H  H104  1  0.71661921  0.58007464  0.95023139  1
  H  H105  1  0.68175059  0.56477277  0.02989584  1
  H  H106  1  0.70543242  0.56759764  0.00756450  1
  H  H107  1  0.68283554  0.56456397  0.98030802  1
  H  H108  1  0.74436697  0.63674075  0.91316871  1
  H  H109  1  0.76739087  0.65318929  0.94554314  1
  H  H110  1  0.75093282  0.66341926  0.92980672  1
  H  H111  1  0.70410966  0.64075916  0.08314244  1
  H  H112  1  0.71023801  0.66146342  0.04798600  1
  H  H113  1  0.73300015  0.66344661  0.07279554  1
  H  H114  1  0.75343615  0.68223655  0.02375538  1
  H  H115  1  0.75738858  0.68096776  0.97472083  1
  H  H116  1  0.77370508  0.71442423  0.99526886  1
  H  H117  1  0.78960493  0.75580559  0.99834405  1
  H  H118  1  0.72101535  0.73969216  0.98403673  1
  H  H119  1  0.70483372  0.69756560  0.98011235  1
  H  H120  1  0.75570381  0.78120424  0.98947948  1
  H  H121  1  0.79945268  0.78895452  0.02289925  1
  H  H122  1  0.67953056  0.60816064  0.07438553  1
  H  H123  1  0.67328238  0.58118858  0.05887393  1
  H  H124  1  0.65635947  0.57830396  0.11383205  1
  H  H125  1  0.63610779  0.54819543  0.16229976  1
  H  H126  1  0.70022330  0.55555476  0.18776992  1
  H  H127  1  0.72042353  0.58702498  0.14124129  1
  H  H128  1  0.63657715  0.52164655  0.21141892  1
  H  H129  1  0.68688238  0.54049407  0.23398692  1
  H  H130  1  0.70371848  0.38696090  0.57204435  1
  H  H131  1  0.70430908  0.38749377  0.43199883  1
  H  H132  1  0.70848794  0.34779317  0.50103751  1
  H  H133  1  0.67390616  0.40261169  0.50145089  1
  H  H134  1  0.80141395  0.34271481  0.65623907  1
  H  H135  1  0.77528973  0.34602763  0.61350022  1
  H  H136  1  0.73102237  0.33361320  0.70697448  1
  H  H137  1  0.75688415  0.33002157  0.74953421  1
  H  H138  1  0.54087683  0.25455164  0.33960054  1
  H  H139  1  0.56766126  0.28397123  0.38673809  1
  H  H140  1  0.62214092  0.27919159  0.34714395  1
  H  H141  1  0.59539717  0.24980386  0.29990879  1
  H  H142  1  0.58754914  0.27987417  0.72715078  1
  H  H143  1  0.61480048  0.30832855  0.67992737  1
  H  H144  1  0.57645487  0.25795176  0.59234100  1
  H  H145  1  0.54912968  0.22945251  0.63948381  1
  H  H146  1  0.64353453  0.48050897  0.34611382  1
  H  H147  1  0.64978852  0.45576836  0.38662186  1
  H  H148  1  0.68788608  0.45085578  0.29781930  1
  H  H149  1  0.68167090  0.47565618  0.25755166  1
  H  H150  1  0.66080770  0.49351739  0.64939614  1
  H  H151  1  0.66759277  0.46865368  0.61030424  1
  H  H152  1  0.67184437  0.43696326  0.71027153  1
  H  H153  1  0.66502243  0.46176874  0.74928696  1
  H  H154  1  0.78744012  0.36768843  0.27071285  1
  H  H155  1  0.76035320  0.36960397  0.31288590  1
  H  H156  1  0.74646108  0.30972523  0.37329963  1
  H  H157  1  0.77333031  0.30769858  0.33081771  1
  H  H158  1  0.95722902  0.11342480  0.05589682  1
  H  H159  1  0.98536542  0.13000147  0.03745964  1
  H  H160  1  0.93013533  0.10821565  0.97875986  1
  H  H161  1  0.99203776  0.16474266  0.03326654  1
  H  H162  1  0.95937952  0.19413531  0.95509706  1
  H  H163  1  0.92912978  0.17313684  0.95772457  1
  H  H164  1  0.97974812  0.19049295  0.02201598  1
  H  H165  1  0.91880733  0.13445557  0.96501518  1
  H  H166  1  0.16914523  0.09198411  0.95898694  1
  H  H167  1  0.17211527  0.10041928  1.00647251  1
  H  H168  1  0.15347639  0.04120561  0.01717789  1
  H  H169  1  0.20996407  0.10790432  0.97531449  1
  H  H170  1  0.22833482  0.05815275  0.05140183  1
  H  H171  1  0.21784916  0.03728983  0.01535579  1
  H  H172  1  0.23582997  0.09539980  0.97977572  1
  H  H173  1  0.18024244  0.03016271  0.02706500  1
  H  H174  1  0.89664287  0.88262472  0.04955020  1
  H  H175  1  0.88775306  0.90110817  0.04282333  1
  H  H176  1  0.88627868  0.85956817  0.96891766  1
  H  H177  1  0.85080660  0.87936831  0.03966046  1
  H  H178  1  0.79502189  0.81723256  0.96206300  1
  H  H179  1  0.80730613  0.80237058  0.94831367  1
  H  H180  1  0.81381314  0.84196323  0.02628857  1
  H  H181  1  0.84910372  0.82275432  0.95436774  1
  C  C182  1  0.05874946  0.04934459  0.99345884  1
  C  C183  1  0.03135388  0.05646904  0.96161810  1
  C  C184  1  1.00023827  0.06223675  0.94436676  1
  C  C185  1  0.03641840  0.04067914  0.97367953  1
  C  C186  1  0.02773761  -0.00002744  0.97439881  1
  C  C187  1  0.00886622  0.04717513  0.94757387  1
  C  C188  1  0.96705781  0.01312753  0.94364873  1
  C  C189  1  0.02164932  0.01669412  0.96491475  1
  C  C190  1  0.99242084  0.02280915  0.94515376  1
  C  C191  1  1.00014374  0.00827665  0.94778891  1
  C  C192  1  0.98262258  0.98256508  0.94381757  1
  C  C193  1  0.95471059  0.95317918  0.98832811  1
  C  C194  1  0.09388842  0.05312564  0.97744017  1
  C  C195  1  0.94344384  0.93511086  0.96185837  1
  C  C196  1  0.94848798  0.94905259  0.02602759  1
  C  C197  1  0.10467988  0.04664888  0.95307113  1
  C  C198  1  0.10433999  0.06438834  0.01139957  1
  C  C199  1  0.92357353  0.91358400  0.97252666  1
  C  C200  1  0.93103649  0.92657908  0.03694376  1
  C  C201  1  0.12668258  0.05267161  0.96200872  1
  C  C202  1  0.12709487  0.07197261  0.01831490  1
  C  C203  1  0.91627603  0.90986174  1.01014124  1
  C  C204  1  0.13937149  0.06869811  0.99118276  1
  C  C205  1  0.96373712  0.09693301  0.01291740  1
  C  C206  1  0.97073533  0.07787932  0.96348832  1
  C  C207  1  0.96191787  0.09038923  0.97504453  1
  C  C208  1  0.96774621  0.08480369  0.03929779  1
  C  C209  1  0.97810659  0.07382454  0.02835328  1
  C  C210  1  0.98138496  0.07226439  0.99017836  1
  C  C211  1  0.04965429  0.08218248  0.96560401  1
  C  C212  1  0.81788922  0.32678474  0.77837288  1
  C  C213  1  0.80509887  0.30734706  0.80122699  1
  C  C214  1  0.81387864  0.30085687  0.83100484  1
  C  C215  1  0.79828820  0.28057994  0.85226840  1
  C  C216  1  0.80600796  0.27346308  0.88102286  1
  C  C217  1  0.82970017  0.28662766  0.88957482  1
  C  C218  1  0.84556719  0.30687758  0.86951567  1
  C  C219  1  0.83782175  0.31395354  0.84055114  1
  C  C220  1  0.82171006  0.26118657  0.94155293  1
  C  C221  1  0.83545297  0.26144448  0.97393151  1
  C  C222  1  0.84642255  0.24990675  0.97059916  1
  C  C223  1  0.86126514  0.25237536  0.99977896  1
  C  C224  1  0.86568756  0.26681845  0.03119843  1
  C  C225  1  0.85561309  0.27929787  0.03272498  1
  C  C226  1  0.83984366  0.27620553  0.00478334  1
  C  C227  1  0.82770057  0.28812701  0.00568313  1
  C  C228  1  0.84110097  0.23408553  0.93777609  1
  C  C229  1  0.88138178  0.26828454  0.06137063  1
  C  C230  1  0.87241647  0.23949845  0.99829026  1
  C  C231  1  0.90967610  0.24632722  0.99127143  1
  C  C232  1  0.89937634  0.22249531  0.99589740  1
  C  C233  1  0.91315445  0.21424204  0.99748727  1
  C  C234  1  0.93753283  0.22939593  0.99482632  1
  C  C235  1  0.94737881  0.25331354  0.98818791  1
  C  C236  1  0.93368125  0.26164411  0.98643133  1
  C  C237  1  0.95134022  0.22013301  0.99591947  1
  C  C238  1  0.94266387  0.19736239  0.00260369  1
  C  C239  1  0.86085619  0.29523377  0.06532797  1
  C  C240  1  0.84241696  0.29379646  0.12224322  1
  C  C241  1  0.85867408  0.31787575  0.12677853  1
  C  C242  1  0.85497189  0.32973207  0.15345978  1
  C  C243  1  0.83527545  0.31790442  0.17717038  1
  C  C244  1  0.81948170  0.29333139  0.17256257  1
  C  C245  1  0.82325631  0.28147000  0.14587440  1
  C  C246  1  0.83121397  0.33029030  0.20421662  1
  C  C247  1  0.81265385  0.31923397  0.22865933  1
  C  C248  1  0.52126813  0.21153271  0.23299662  1
  C  C249  1  0.51556703  0.19219536  0.21206320  1
  C  C250  1  0.49930080  0.18263907  0.18094860  1
  C  C251  1  0.49393325  0.16258747  0.16070829  1
  C  C252  1  0.47860231  0.15350586  0.13040280  1
  C  C253  1  0.46786976  0.16420194  0.11881889  1
  C  C254  1  0.47250572  0.18374158  0.13847051  1
  C  C255  1  0.48788727  0.19282489  0.16868131  1
  C  C256  1  0.44792685  0.13854869  0.06396624  1
  C  C257  1  0.43384419  0.13814838  0.03146522  1
  C  C258  1  0.40941498  0.12531317  0.03420342  1
  C  C259  1  0.39678596  0.12701381  0.00510967  1
  C  C260  1  0.40827385  0.14112713  0.97319884  1
  C  C261  1  0.43265159  0.15372466  0.97062848  1
  C  C262  1  0.44549855  0.15214744  0.99952970  1
  C  C263  1  0.47140103  0.16507337  0.99826892  1
  C  C264  1  0.39695158  0.10880240  0.06622972  1
  C  C265  1  0.39346393  0.14191343  0.94370348  1
  C  C266  1  0.37074861  0.11355037  0.00671209  1
  C  C267  1  0.34053477  0.11949304  0.01286570  1
  C  C268  1  0.32386107  0.09558086  0.00808423  1
  C  C269  1  0.30044680  0.08673455  0.00713827  1
  C  C270  1  0.29280947  0.10134309  0.01101296  1
  C  C271  1  0.31011520  0.12546945  0.01626592  1
  C  C272  1  0.33354785  0.13439591  0.01740093  1
  C  C273  1  0.26824255  0.09181840  0.01152179  1
  C  C274  1  0.25086481  0.06921516  0.00355924  1
  C  C275  1  0.44505633  0.16940124  0.93735389  1
  C  C276  1  0.46257926  0.17022768  0.87903792  1
  C  C277  1  0.47079162  0.19355346  0.87439138  1
  C  C278  1  0.48676521  0.20677772  0.84648780  1
  C  C279  1  0.49466714  0.19725894  0.82108068  1
  C  C280  1  0.48524458  0.17320993  0.82548751  1
  C  C281  1  0.46929211  0.15992910  0.85369941  1
  C  C282  1  0.51132321  0.21242816  0.79276231  1
  C  C283  1  0.52127128  0.20706907  0.76492709  1
  C  C284  1  0.65913974  0.52174534  0.77191532  1
  C  C285  1  0.67729806  0.53108496  0.79750912  1
  C  C286  1  0.68292051  0.54704882  0.82769089  1
  C  C287  1  0.70244648  0.55381189  0.85028707  1
  C  C288  1  0.70932033  0.56928298  0.87974950  1
  C  C289  1  0.69655322  0.57827342  0.88790061  1
  C  C290  1  0.67720296  0.57209062  0.86625224  1
  C  C291  1  0.67036818  0.55662429  0.83647426  1
  C  C292  1  0.72077763  0.59718295  0.94197453  1
  C  C293  1  0.72115145  0.61096010  0.97437275  1
  C  C294  1  0.73355480  0.63535900  0.97077911  1
  C  C295  1  0.73138282  0.64783285  0.99942052  1
  C  C296  1  0.71669603  0.63621247  0.03057055  1
  C  C297  1  0.70345934  0.61165695  0.03235308  1
  C  C298  1  0.70610798  0.59884154  0.00492517  1
  C  C299  1  0.69338424  0.57277789  0.00587596  1
  C  C300  1  0.74970746  0.64773429  0.93832195  1
  C  C301  1  0.71580524  0.65099519  0.06004328  1
  C  C302  1  0.74439904  0.67377666  0.99712396  1
  C  C303  1  0.73798656  0.70326223  0.98941097  1
  C  C304  1  0.76187167  0.71963735  0.99388688  1
  C  C305  1  0.77090802  0.74313792  0.99582288  1
  C  C306  1  0.75644276  0.75094393  0.99392358  1
  C  C307  1  0.73242120  0.73404406  0.98735546  1
  C  C308  1  0.72330487  0.71048037  0.98513219  1
  C  C309  1  0.76700054  0.77567756  0.99587270  1
  C  C310  1  0.79027075  0.79161964  1.00099871  1
  C  C311  1  0.68754344  0.59938289  0.06505456  1
  C  C312  1  0.68941185  0.58350682  0.12332089  1
  C  C313  1  0.66579367  0.57300179  0.12978286  1
  C  C314  1  0.65451608  0.55629703  0.15760127  1
  C  C315  1  0.66646118  0.54955661  0.17993367  1
  C  C316  1  0.69048807  0.56088716  0.17293502  1
  C  C317  1  0.70189843  0.57818469  0.14596030  1
  C  C318  1  0.65530652  0.53163822  0.20791576  1
  C  C319  1  0.66815951  0.52730369  0.23117066  1
  C  C320  1  0.70815949  0.35156887  0.60344977  1
  C  C321  1  0.67982301  0.40699801  0.40042707  1
  C  C322  1  0.68054256  0.40652436  0.60218888  1
  C  C323  1  0.70861169  0.35146197  0.39950717  1
  C  C324  1  0.64704916  0.33595929  0.56227550  1
  C  C325  1  0.64679589  0.33612827  0.43934012  1
  C  C326  1  0.80680879  0.33147896  0.75203599  1
  C  C327  1  0.79602718  0.33495445  0.72926174  1
  C  C328  1  0.78112410  0.33667714  0.70560768  1
  C  C329  1  0.78600183  0.34090666  0.66678869  1
  C  C330  1  0.77166826  0.34273758  0.64336087  1
  C  C331  1  0.75190018  0.34063397  0.65772622  1
  C  C332  1  0.74654946  0.33563161  0.69643340  1
  C  C333  1  0.76076986  0.33372348  0.71979327  1
  C  C334  1  0.73766775  0.34369471  0.63451912  1
  C  C335  1  0.72419503  0.34705320  0.61978269  1
  C  C336  1  0.53786584  0.22186514  0.26148855  1
  C  C337  1  0.55131851  0.23456138  0.28669258  1
  C  C338  1  0.56624217  0.25041785  0.31512674  1
  C  C339  1  0.55883572  0.26023275  0.34104191  1
  C  C340  1  0.57378461  0.27671629  0.36719550  1
  C  C341  1  0.59735317  0.28480796  0.36927256  1
  C  C342  1  0.60436098  0.27398325  0.34489943  1
  C  C343  1  0.58944743  0.25753403  0.31874280  1
  C  C344  1  0.61338204  0.30265528  0.39450675  1
  C  C345  1  0.62839451  0.31806788  0.41511048  1
  C  C346  1  0.53641204  0.22334797  0.73856880  1
  C  C347  1  0.55000258  0.23674943  0.71432167  1
  C  C348  1  0.56573942  0.25258890  0.68701874  1
  C  C349  1  0.58502273  0.27523364  0.69748489  1
  C  C350  1  0.60021482  0.29102805  0.67126122  1
  C  C351  1  0.59756892  0.28552682  0.63244477  1
  C  C352  1  0.57871100  0.26277140  0.62192277  1
  C  C353  1  0.56341976  0.24688848  0.64822865  1
  C  C354  1  0.61369159  0.30245011  0.60649420  1
  C  C355  1  0.62865312  0.31775756  0.58597517  1
  C  C356  1  0.65930358  0.50796001  0.25406758  1
  C  C357  1  0.65892812  0.49394875  0.27535882  1
  C  C358  1  0.66151778  0.47923538  0.29860364  1
  C  C359  1  0.65293030  0.47361907  0.33562685  1
  C  C360  1  0.65644462  0.45990082  0.35808074  1
  C  C361  1  0.66874145  0.45092476  0.34490835  1
  C  C362  1  0.67792695  0.45718818  0.30804148  1
  C  C363  1  0.67445582  0.47085446  0.28572250  1
  C  C364  1  0.67190061  0.43623875  0.36717158  1
  C  C365  1  0.67527433  0.42304629  0.38328819  1
  C  C366  1  0.65664680  0.50638410  0.74475809  1
  C  C367  1  0.65818047  0.49337848  0.72378241  1
  C  C368  1  0.66188845  0.47905354  0.70195577  1
  C  C369  1  0.66299637  0.48085435  0.66233354  1
  C  C370  1  0.66680243  0.46711329  0.64075332  1
  C  C371  1  0.66978799  0.45070292  0.65742337  1
  C  C372  1  0.66919144  0.44927761  0.69720746  1
  C  C373  1  0.66539579  0.46296685  0.71878771  1
  C  C374  1  0.67333122  0.43617049  0.63565682  1
  C  C375  1  0.67650291  0.42281872  0.61964371  1
  C  C376  1  0.80632550  0.33076771  0.25112804  1
  C  C377  1  0.79602158  0.33543357  0.27277660  1
  C  C378  1  0.78196931  0.33753394  0.29798178  1
  C  C379  1  0.77838014  0.35523246  0.29336243  1
  C  C380  1  0.76353993  0.35626811  0.31653023  1
  C  C381  1  0.75160294  0.33966975  0.34563226  1
  C  C382  1  0.75558137  0.32228468  0.35079676  1
  C  C383  1  0.77037517  0.32120737  0.32750012  1
  C  C384  1  0.73600138  0.34080646  0.36853944  1
  C  C385  1  0.72334300  0.34523845  0.38325755  1
  C  C386  1  0.96678377  0.11856345  0.02880722  1
  C  C387  1  0.96152672  0.13411320  0.00917708  1
  C  C388  1  0.94133294  0.12626952  0.98839441  1
  C  C389  1  0.97558083  0.15779883  0.01904949  1
  C  C390  1  0.94913828  0.16502765  0.99001338  1
  C  C391  1  0.96905853  0.17267533  0.01129259  1
  C  C392  1  0.93519060  0.14141102  0.97954363  1
  C  C393  1  0.94513795  0.18274719  0.97500323  1
  C  C394  1  0.16543084  0.08497227  0.98816378  1
  C  C395  1  0.17970047  0.07555153  0.99478293  1
  C  C396  1  0.17164763  0.05356966  0.00960447  1
  C  C397  1  0.20326869  0.09059192  0.98616049  1
  C  C398  1  0.21071781  0.06269141  0.00763693  1
  C  C399  1  0.21824427  0.08388418  0.99050617  1
  C  C400  1  0.18695302  0.04739829  0.01582630  1
  C  C401  1  0.22688894  0.05618952  0.02016317  1
  C  C402  1  0.89305503  0.89121781  0.02702078  1
  C  C403  1  0.87147870  0.87197042  0.00688397  1
  C  C404  1  0.87049759  0.85608040  0.98149277  1
  C  C405  1  0.85055742  0.86688108  0.02111914  1
  C  C406  1  0.82837851  0.83075578  0.98600494  1
  C  C407  1  0.82951329  0.84615745  0.01237426  1
  C  C408  1  0.84928984  0.83555031  0.97203256  1
  C  C409  1  0.80470057  0.81032299  0.97287633  1
  O  O410  1  0.07304455  0.04788915  0.96588620  1
  O  O411  1  0.99476697  0.06457394  0.98275643  1
  O  O412  1  0.97168207  0.97575240  0.98053946  1
  O  O413  1  0.83834124  0.28021099  0.91691361  1
  O  O414  1  0.84484642  0.28154707  0.09554564  1
  O  O415  1  0.89724809  0.25561553  0.99113600  1
  O  O416  1  0.45218407  0.15665371  0.09020689  1
  O  O417  1  0.44776811  0.15697827  0.90730951  1
  O  O418  1  0.36372465  0.12922584  0.01331502  1
  O  O419  1  0.70263295  0.59350185  0.91656396  1
  O  O420  1  0.70123839  0.59947725  0.09574768  1
  O  O421  1  0.72832020  0.67999565  0.98914451  1
  O  O422  1  0.64737637  0.35395065  0.55642547  1
  O  O423  1  0.70365287  0.34597550  0.56897060  1
  O  O424  1  0.70155831  0.36038428  0.62540885  1
  O  O425  1  0.67216042  0.40030597  0.43358578  1
  O  O426  1  0.69081586  0.40251980  0.37936100  1
  O  O427  1  0.66065988  0.33176343  0.45226787  1
  O  O428  1  0.66100617  0.33175078  0.54945405  1
  O  O429  1  0.67237667  0.39994077  0.56909476  1
  O  O430  1  0.69159196  0.40170580  0.62251124  1
  O  O431  1  0.70320151  0.34544291  0.43358631  1
  O  O432  1  0.70386725  0.36200852  0.37772978  1
  O  O433  1  0.64718467  0.35412982  0.44552416  1
  O  O434  1  0.69331805  0.37757742  0.55147309  1
  O  O435  1  0.69291680  0.37736508  0.45078544  1
  O  O436  1  0.69660288  0.35069267  0.50111182  1
  O  O437  1  0.67100547  0.38729900  0.50118597  1
