# generated using pymatgen
data_CoH52C80O7
_symmetry_space_group_name_H-M   'P 1'
_cell_length_a   73.34525672
_cell_length_b   73.07752050
_cell_length_c   32.94676277
_cell_angle_alpha   90.04610235
_cell_angle_beta   89.93260326
_cell_angle_gamma   120.21213107
_symmetry_Int_Tables_number   1
_chemical_formula_structural   CoH52C80O7
_chemical_formula_sum   'Co3 H156 C240 O21'
_cell_volume   152604.23727608
_cell_formula_units_Z   3
loop_
 _symmetry_equiv_pos_site_id
 _symmetry_equiv_pos_as_xyz
  1  'x, y, z'
loop_
 _atom_site_type_symbol
 _atom_site_label
 _atom_site_symmetry_multiplicity
 _atom_site_fract_x
 _atom_site_fract_y
 _atom_site_fract_z
 _atom_site_occupancy
  Co  Co0  1  0.66965885  0.37147914  0.50107070  1
  Co  Co1  1  0.72431964  0.40162523  0.50210192  1
  Co  Co2  1  0.69885167  0.34679566  0.50304673  1
  H  H3  1  0.04143860  0.01079697  0.00425589  1
  H  H4  1  0.98869019  0.93914926  0.99121292  1
  H  H5  1  0.95751412  0.90180992  0.98941062  1
  H  H6  1  0.91583340  0.92643655  0.01346720  1
  H  H7  1  0.94701646  0.96334103  0.01572529  1
  H  H8  1  0.98921864  0.02182224  0.00156598  1
  H  H9  1  0.96985626  0.07311535  0.98743603  1
  H  H10  1  0.96236288  0.10328576  0.99125254  1
  H  H11  1  0.02866604  0.14674918  0.01397966  1
  H  H12  1  0.03532130  0.11624861  0.01435248  1
  H  H13  1  0.05269032  0.07442079  0.00219504  1
  H  H14  1  0.12251825  0.09489159  0.01574884  1
  H  H15  1  0.16072806  0.10452553  0.00966705  1
  H  H16  1  0.14059188  0.03853107  0.98874934  1
  H  H17  1  0.10271993  0.02934850  0.99351259  1
  H  H18  1  0.87708501  0.40023076  0.75005025  1
  H  H19  1  0.83553619  0.36048108  0.77759866  1
  H  H20  1  0.83253136  0.34038814  0.82971488  1
  H  H21  1  0.84622766  0.32943528  0.88670411  1
  H  H22  1  0.90875715  0.38228720  0.86424716  1
  H  H23  1  0.89518098  0.39321649  0.80577711  1
  H  H24  1  0.86281844  0.31829834  0.92015257  1
  H  H25  1  0.85853403  0.33720232  0.94562336  1
  H  H26  1  0.87919871  0.36937444  0.03174059  1
  H  H27  1  0.85712981  0.34762292  0.00944018  1
  H  H28  1  0.87719306  0.36727743  0.97849556  1
  H  H29  1  0.88427350  0.31127656  0.90684088  1
  H  H30  1  0.87694488  0.28999458  0.94087495  1
  H  H31  1  0.90350216  0.30581799  0.92488756  1
  H  H32  1  0.92714908  0.34735796  0.09222540  1
  H  H33  1  0.94102871  0.34185631  0.05441928  1
  H  H34  1  0.91988450  0.32099817  0.08109691  1
  H  H35  1  0.91811287  0.30291654  0.02757243  1
  H  H36  1  0.91241387  0.29869070  0.97473797  1
  H  H37  1  0.92724912  0.28374479  0.99692078  1
  H  H38  1  0.94870203  0.26760755  0.00142816  1
  H  H39  1  0.00497222  0.32906800  0.98364653  1
  H  H40  1  0.98249004  0.34528062  0.98003793  1
  H  H41  1  0.00825634  0.29541456  0.99149042  1
  H  H42  1  0.96465040  0.25533429  0.00750525  1
  H  H43  1  0.92063684  0.36983354  0.08203589  1
  H  H44  1  0.90004355  0.37422839  0.06709309  1
  H  H45  1  0.91624493  0.39018873  0.12362695  1
  H  H46  1  0.90941460  0.40964237  0.17636132  1
  H  H47  1  0.85282168  0.35113350  0.21111260  1
  H  H48  1  0.86037633  0.33227355  0.15829073  1
  H  H49  1  0.88533689  0.40998678  0.23297537  1
  H  H50  1  0.85064641  0.36427812  0.25515704  1
  H  H51  1  0.53886657  0.21725004  0.24524720  1
  H  H52  1  0.55394887  0.18474044  0.23600610  1
  H  H53  1  0.53452263  0.15756188  0.18193142  1
  H  H54  1  0.51017472  0.14457500  0.12425123  1
  H  H55  1  0.49751356  0.19570613  0.13975436  1
  H  H56  1  0.52182046  0.20917141  0.19746391  1
  H  H57  1  0.48036132  0.13151995  0.08619817  1
  H  H58  1  0.50358291  0.15051699  0.06084583  1
  H  H59  1  0.51477538  0.18293297  0.97440828  1
  H  H60  1  0.51522145  0.16120896  0.99627583  1
  H  H61  1  0.51494671  0.18079721  0.02760388  1
  H  H62  1  0.45136179  0.12460890  0.09924616  1
  H  H63  1  0.43723405  0.10342523  0.06491306  1
  H  H64  1  0.42677714  0.11945908  0.08078895  1
  H  H65  1  0.44495923  0.16074650  0.91377869  1
  H  H66  1  0.42561938  0.15537560  0.95146907  1
  H  H67  1  0.42564605  0.13445501  0.92465696  1
  H  H68  1  0.40927613  0.11601828  0.97772977  1
  H  H69  1  0.41051353  0.11132136  0.03034464  1
  H  H70  1  0.37945973  0.09718686  0.00789924  1
  H  H71  1  0.34158202  0.08356593  0.00333316  1
  H  H72  1  0.35223633  0.14677844  0.02259647  1
  H  H73  1  0.39077639  0.16057015  0.02604806  1
  H  H74  1  0.31746195  0.11960892  0.01438795  1
  H  H75  1  0.30675945  0.07324656  -0.00033865  1
  H  H76  1  0.47359307  0.18226522  0.92364465  1
  H  H77  1  0.49869373  0.18708223  0.93880995  1
  H  H78  1  0.49638401  0.20235823  0.88594208  1
  H  H79  1  0.52289605  0.22404458  0.83503489  1
  H  H80  1  0.52375433  0.16850977  0.79159002  1
  H  H81  1  0.49779767  0.14699593  0.84474554  1
  H  H82  1  0.54406249  0.22872327  0.78151272  1
  H  H83  1  0.54828090  0.19192119  0.74464094  1
  H  H84  1  0.66169789  0.52020047  0.74894444  1
  H  H85  1  0.70146577  0.51881666  0.77649095  1
  H  H86  1  0.72138763  0.53603665  0.82847205  1
  H  H87  1  0.73217919  0.56078739  0.88551214  1
  H  H88  1  0.67915417  0.56983036  0.86361038  1
  H  H89  1  0.66841543  0.54524665  0.80497449  1
  H  H90  1  0.74300504  0.58822327  0.91903387  1
  H  H91  1  0.72418519  0.56478828  0.94430499  1
  H  H92  1  0.69199018  0.55297657  0.03044614  1
  H  H93  1  0.71371799  0.55272570  0.00835921  1
  H  H94  1  0.69421867  0.55309081  0.97723675  1
  H  H95  1  0.75022592  0.61680651  0.90605067  1
  H  H96  1  0.77135897  0.63100061  0.94016962  1
  H  H97  1  0.75540028  0.64148975  0.92425982  1
  H  H98  1  0.71382426  0.62319467  0.09129919  1
  H  H99  1  0.71920892  0.64259802  0.05343924  1
  H  H100  1  0.74004731  0.64256747  0.08019470  1
  H  H101  1  0.75810936  0.65902946  0.02693065  1
  H  H102  1  0.76258199  0.65747703  0.97422454  1
  H  H103  1  0.77715818  0.68721373  0.99579740  1
  H  H104  1  0.79308780  0.72492260  0.00043149  1
  H  H105  1  0.73177547  0.71932690  0.98221844  1
  H  H106  1  0.71575792  0.68043078  0.97859793  1
  H  H107  1  0.76560226  0.75676113  0.99021506  1
  H  H108  1  0.80515097  0.75271467  0.00673207  1
  H  H109  1  0.69122913  0.59395021  0.08051970  1
  H  H110  1  0.68718017  0.56891066  0.06595361  1
  H  H111  1  0.67110871  0.56905798  0.12237312  1
  H  H112  1  0.65188229  0.54263400  0.17519819  1
  H  H113  1  0.71050007  0.54547989  0.21012700  1
  H  H114  1  0.72912157  0.57210155  0.15736105  1
  H  H115  1  0.65193650  0.51831059  0.23221177  1
  H  H116  1  0.69778956  0.53060769  0.25437341  1
  H  H117  1  0.79671378  0.37563906  0.57944335  1
  H  H118  1  0.76574128  0.38065931  0.68634199  1
  H  H119  1  0.73564898  0.37596154  0.64428279  1
  H  H120  1  0.76641016  0.37048407  0.53753602  1
  H  H121  1  0.64335959  0.27905791  0.36355265  1
  H  H122  1  0.59741798  0.29894529  0.37583999  1
  H  H123  1  0.62275269  0.32954220  0.41707049  1
  H  H124  1  0.66864872  0.30983504  0.40455111  1
  H  H125  1  0.64648545  0.29264821  0.66967362  1
  H  H126  1  0.59462349  0.28690365  0.59834854  1
  H  H127  1  0.61963140  0.31845879  0.55819151  1
  H  H128  1  0.67161721  0.32299433  0.62699874  1
  H  H129  1  0.72072183  0.47043712  0.36590576  1
  H  H130  1  0.65377287  0.42767401  0.37573012  1
  H  H131  1  0.66040418  0.40306910  0.41578258  1
  H  H132  1  0.72721828  0.44595351  0.40679659  1
  H  H133  1  0.65427012  0.43062499  0.61706668  1
  H  H134  1  0.72009829  0.46568516  0.64903753  1
  H  H135  1  0.72659414  0.44122714  0.60749807  1
  H  H136  1  0.66065224  0.40572820  0.57678793  1
  H  H137  1  0.79213593  0.36594903  0.42049017  1
  H  H138  1  0.77159449  0.39063894  0.32344859  1
  H  H139  1  0.74178629  0.38624995  0.36566940  1
  H  H140  1  0.76100117  0.35940986  0.46078625  1
  H  H141  1  0.97383375  0.17049817  0.94423287  1
  H  H142  1  0.97333364  0.20644937  0.94432688  1
  H  H143  1  0.02866442  0.23451305  0.00027178  1
  H  H144  1  0.02851048  0.19819570  0.00013823  1
  H  H145  1  0.97637961  0.17199462  0.06283519  1
  H  H146  1  0.97614608  0.20813155  0.06255494  1
  H  H147  1  0.19963218  0.05671772  0.94483990  1
  H  H148  1  0.23609677  0.05743020  0.94511319  1
  H  H149  1  0.23742213  0.06002375  0.06135491  1
  H  H150  1  0.20079560  0.05895653  0.06163164  1
  H  H151  1  0.22607227  0.11230972  0.99944305  1
  H  H152  1  0.26281571  0.11388784  0.99998783  1
  H  H153  1  0.88052941  0.85743656  0.93334673  1
  H  H154  1  0.84407867  0.82128768  0.93256094  1
  H  H155  1  0.82978003  0.83528664  0.03744417  1
  H  H156  1  0.86620013  0.87150054  0.03772294  1
  H  H157  1  0.89663382  0.84008131  0.03338019  1
  H  H158  1  0.86028219  0.80394178  0.03345379  1
  C  C159  1  0.03552649  0.02180342  0.00427055  1
  C  C160  1  0.01386119  0.01384589  0.00456842  1
  C  C161  1  1.00024054  0.99175884  0.00594480  1
  C  C162  1  0.98688722  0.97296012  0.00596581  1
  C  C163  1  0.96925025  0.95257715  0.00481706  1
  C  C164  1  0.97255388  0.93553005  0.99651075  1
  C  C165  1  0.95560423  0.91540368  0.99530750  1
  C  C166  1  0.93502319  0.91206493  0.00198615  1
  C  C167  1  0.93184916  0.92951210  0.00913252  1
  C  C168  1  0.94873005  0.94956005  0.01050713  1
  C  C169  1  0.00613886  0.02777984  0.00188012  1
  C  C170  1  0.02004107  0.04949844  -0.00057996  1
  C  C171  1  0.01193394  0.06327479  0.99618051  1
  C  C172  1  0.00642836  0.07650803  0.99553054  1
  C  C173  1  0.00295205  0.09359512  -0.00166724  1
  C  C174  1  0.98212500  0.08943233  0.99304791  1
  C  C175  1  0.97820795  0.10582968  0.99504706  1
  C  C176  1  0.99519624  0.12671542  0.00164296  1
  C  C177  1  0.01602737  0.13057198  0.00863770  1
  C  C178  1  0.01980432  0.11413306  0.00799357  1
  C  C179  1  0.04172855  0.05740627  0.00200841  1
  C  C180  1  0.04955385  0.04359923  0.00401282  1
  C  C181  1  0.07147431  0.05168071  0.00485417  1
  C  C182  1  0.09017676  0.05715422  0.00491560  1
  C  C183  1  0.11115690  0.06192763  0.00392189  1
  C  C184  1  0.12721522  0.08320710  0.00951095  1
  C  C185  1  0.14782930  0.08825123  0.00720528  1
  C  C186  1  0.15260555  0.07189050  0.00134998  1
  C  C187  1  0.13630182  0.05051257  0.99501102  1
  C  C188  1  0.11575937  0.04551669  0.99691314  1
  C  C189  1  0.86042101  0.38809829  0.75154464  1
  C  C190  1  0.85238612  0.37182525  0.78018602  1
  C  C191  1  0.86253950  0.36750542  0.81300034  1
  C  C192  1  0.84925807  0.34959610  0.83712230  1
  C  C193  1  0.85691665  0.34358402  0.86953500  1
  C  C194  1  0.87832206  0.35552494  0.87924898  1
  C  C195  1  0.89208083  0.37326390  0.85611165  1
  C  C196  1  0.88434486  0.37929939  0.82336964  1
  C  C197  1  0.87068654  0.33324801  0.93731470  1
  C  C198  1  0.88261871  0.33224496  0.97310144  1
  C  C199  1  0.89330596  0.32076616  0.96961083  1
  C  C200  1  0.90725857  0.32267700  0.00093373  1
  C  C201  1  0.91034590  0.33568612  0.03510014  1
  C  C202  1  0.89998093  0.34755124  0.03705693  1
  C  C203  1  0.88577511  0.34578226  0.00639369  1
  C  C204  1  0.87435409  0.35808236  0.00664200  1
  C  C205  1  0.88938382  0.30638438  0.93394240  1
  C  C206  1  0.92528933  0.33665294  0.06729373  1
  C  C207  1  0.91904062  0.31086052  0.99852932  1
  C  C208  1  0.95345387  0.31577613  0.98962175  1
  C  C209  1  0.94431136  0.29395489  0.99478301  1
  C  C210  1  0.95680612  0.28468272  0.99671818  1
  C  C211  1  0.97903275  0.29664636  0.99281279  1
  C  C212  1  0.98791965  0.31893997  0.98676820  1
  C  C213  1  0.97537332  0.32825115  0.98495549  1
  C  C214  1  0.99115151  0.28594564  0.99453113  1
  C  C215  1  0.98159062  0.26426166  0.00068558  1
  C  C216  1  0.90392347  0.36177212  0.07283792  1
  C  C217  1  0.88814993  0.36017274  0.13675201  1
  C  C218  1  0.90214529  0.38186178  0.14245158  1
  C  C219  1  0.89830985  0.39273720  0.17267912  1
  C  C220  1  0.88029751  0.38230041  0.19855177  1
  C  C221  1  0.86692481  0.36011611  0.19260432  1
  C  C222  1  0.87099371  0.34923310  0.16269216  1
  C  C223  1  0.87492942  0.39299165  0.22887620  1
  C  C224  1  0.85738170  0.38155397  0.25394861  1
  C  C225  1  0.55002719  0.21148801  0.24899319  1
  C  C226  1  0.54601805  0.19338386  0.22738438  1
  C  C227  1  0.53095096  0.18491707  0.19465694  1
  C  C228  1  0.52676292  0.16632225  0.17288350  1
  C  C229  1  0.51301506  0.15890340  0.14007147  1
  C  C230  1  0.50269761  0.16968027  0.12781827  1
  C  C231  1  0.50582567  0.18754430  0.14923348  1
  C  C232  1  0.51968311  0.19506609  0.18187190  1
  C  C233  1  0.48750630  0.14660621  0.06947271  1
  C  C234  1  0.47443338  0.14581708  0.03373694  1
  C  C235  1  0.45217132  0.13422331  0.03660069  1
  C  C236  1  0.44004867  0.13565217  0.00480545  1
  C  C237  1  0.44991435  0.14884302  0.97086867  1
  C  C238  1  0.47216962  0.16060885  0.96926575  1
  C  C239  1  0.48471081  0.15919444  1.00018640  1
  C  C240  1  0.50845201  0.17161722  0.99948563  1
  C  C241  1  0.44142246  0.11984844  0.07205980  1
  C  C242  1  0.43603770  0.15002618  0.93866018  1
  C  C243  1  0.41639135  0.12369167  0.00692821  1
  C  C244  1  0.38760397  0.12990828  0.01597679  1
  C  C245  1  0.37365079  0.10825233  0.01032659  1
  C  C246  1  0.35203270  0.10048630  0.00829226  1
  C  C247  1  0.34358217  0.11410869  0.01240812  1
  C  C248  1  0.35825398  0.13594527  0.01912490  1
  C  C249  1  0.37983024  0.14373901  0.02100402  1
  C  C250  1  0.32134947  0.10714675  0.01035656  1
  C  C251  1  0.30448767  0.08681208  0.00393108  1
  C  C252  1  0.48239661  0.17445294  0.93321912  1
  C  C253  1  0.49623810  0.17349111  0.86943266  1
  C  C254  1  0.50278058  0.19502974  0.86607487  1
  C  C255  1  0.51735129  0.20714525  0.83685267  1
  C  C256  1  0.52544194  0.19820739  0.80898029  1
  C  C257  1  0.51796353  0.17608872  0.81229410  1
  C  C258  1  0.50334827  0.16388387  0.84196940  1
  C  C259  1  0.54043826  0.21231392  0.77970541  1
  C  C260  1  0.55096547  0.20790008  0.74943812  1
  C  C261  1  0.67394292  0.51590727  0.75031097  1
  C  C262  1  0.69007343  0.52420129  0.77910076  1
  C  C263  1  0.69423481  0.53865583  0.81199372  1
  C  C264  1  0.71211962  0.54344720  0.83601177  1
  C  C265  1  0.71802993  0.55715913  0.86844951  1
  C  C266  1  0.70597769  0.56644895  0.87832647  1
  C  C267  1  0.68824987  0.56230013  0.85531385  1
  C  C268  1  0.68232659  0.54849842  0.82250209  1
  C  C269  1  0.72813320  0.58099276  0.93627483  1
  C  C270  1  0.72917396  0.59387273  0.97223439  1
  C  C271  1  0.74064018  0.61614571  0.96885533  1
  C  C272  1  0.73869268  0.62815838  1.00028318  1
  C  C273  1  0.72557460  0.61813095  0.03423460  1
  C  C274  1  0.71370098  0.59578514  0.03598245  1
  C  C275  1  0.71556840  0.58334375  0.00534154  1
  C  C276  1  0.70331161  0.55949499  0.00544945  1
  C  C277  1  0.75498292  0.62681184  0.93323483  1
  C  C278  1  0.72448030  0.63213071  0.06638000  1
  C  C279  1  0.75035636  0.65184534  0.99783646  1
  C  C280  1  0.74520419  0.68115435  0.98834120  1
  C  C281  1  0.76693128  0.69399618  0.99360015  1
  C  C282  1  0.77608732  0.71584782  0.99559470  1
  C  C283  1  0.76411745  0.72604214  0.99157746  1
  C  C284  1  0.74191283  0.71246661  0.98540580  1
  C  C285  1  0.73271054  0.69050808  0.98357181  1
  C  C286  1  0.77489016  0.74897402  0.99333463  1
  C  C287  1  0.79650325  0.76095156  -0.00033525  1
  C  C288  1  0.69944253  0.58541316  0.07161739  1
  C  C289  1  0.70116018  0.57148433  0.13571698  1
  C  C290  1  0.67950313  0.56346395  0.14131445  1
  C  C291  1  0.66876219  0.54867858  0.17158439  1
  C  C292  1  0.67932271  0.54135621  0.19757719  1
  C  C293  1  0.70145058  0.55046689  0.19165515  1
  C  C294  1  0.71219584  0.56551495  0.16174427  1
  C  C295  1  0.66890234  0.52525213  0.22802571  1
  C  C296  1  0.68063744  0.51961991  0.25314621  1
  C  C297  1  0.66172726  0.33752076  0.55780985  1
  C  C298  1  0.73314484  0.37303427  0.55884249  1
  C  C299  1  0.69795473  0.40899469  0.55795479  1
  C  C300  1  0.66078841  0.33734574  0.44666485  1
  C  C301  1  0.69754442  0.40961588  0.44625006  1
  C  C302  1  0.73369547  0.37302520  0.44675825  1
  C  C303  1  0.78337104  0.37590007  0.59346231  1
  C  C304  1  0.78387293  0.37926074  0.63591042  1
  C  C305  1  0.76597811  0.37881691  0.65352686  1
  C  C306  1  0.74925832  0.37641834  0.62991794  1
  C  C307  1  0.84692538  0.38900780  0.72384317  1
  C  C308  1  0.76658233  0.37324697  0.57002451  1
  C  C309  1  0.80140607  0.38258578  0.65886739  1
  C  C310  1  0.81665256  0.38529910  0.67900559  1
  C  C311  1  0.83322509  0.38822862  0.70093652  1
  C  C312  1  0.75000292  0.37457218  0.58772910  1
  C  C313  1  0.63877740  0.29005005  0.37571167  1
  C  C314  1  0.61811983  0.28614406  0.36696840  1
  C  C315  1  0.61296538  0.30114984  0.38248629  1
  C  C316  1  0.62700111  0.31810777  0.40614066  1
  C  C317  1  0.56644050  0.22305568  0.27541651  1
  C  C318  1  0.65276694  0.30696616  0.39933052  1
  C  C319  1  0.60406643  0.26851051  0.34354998  1
  C  C320  1  0.59212071  0.25327819  0.32227558  1
  C  C321  1  0.57917224  0.23697388  0.29860302  1
  C  C322  1  0.64664637  0.32055997  0.41694554  1
  C  C323  1  0.64079344  0.29806893  0.64445474  1
  C  C324  1  0.61875213  0.28719023  0.63648403  1
  C  C325  1  0.61150158  0.29503816  0.60467716  1
  C  C326  1  0.62539675  0.31237833  0.58204723  1
  C  C327  1  0.56523111  0.22375609  0.72455882  1
  C  C328  1  0.65478780  0.31478394  0.62048111  1
  C  C329  1  0.60449989  0.26959054  0.65946637  1
  C  C330  1  0.59185207  0.25447273  0.68004412  1
  C  C331  1  0.57808276  0.23812389  0.70252227  1
  C  C332  1  0.64718024  0.32153842  0.58815056  1
  C  C333  1  0.70741262  0.45577954  0.37734128  1
  C  C334  1  0.68663412  0.45131208  0.36791672  1
  C  C335  1  0.66992045  0.43174284  0.38275151  1
  C  C336  1  0.67361139  0.41814601  0.40581474  1
  C  C337  1  0.67344671  0.50196928  0.27739460  1
  C  C338  1  0.71110216  0.44221985  0.40084192  1
  C  C339  1  0.68228710  0.46486412  0.34477780  1
  C  C340  1  0.67841028  0.47643948  0.32379611  1
  C  C341  1  0.67473200  0.48915855  0.30029246  1
  C  C342  1  0.69423083  0.42362865  0.41721759  1
  C  C343  1  0.67010335  0.43285090  0.61473793  1
  C  C344  1  0.68676871  0.45031803  0.63538398  1
  C  C345  1  0.70718712  0.45272524  0.63245407  1
  C  C346  1  0.71086472  0.43923464  0.60886698  1
  C  C347  1  0.67336187  0.50175785  0.72222658  1
  C  C348  1  0.67372277  0.41919499  0.59184091  1
  C  C349  1  0.68267178  0.46416789  0.65785935  1
  C  C350  1  0.67904932  0.47619329  0.67780665  1
  C  C351  1  0.67511933  0.48926843  0.69952445  1
  C  C352  1  0.69431867  0.42280895  0.58677829  1
  C  C353  1  0.78112770  0.37046390  0.40837739  1
  C  C354  1  0.78496859  0.37958758  0.36902717  1
  C  C355  1  0.76972585  0.38453508  0.35430070  1
  C  C356  1  0.75308860  0.38225851  0.37816651  1
  C  C357  1  0.84738970  0.38920915  0.27814235  1
  C  C358  1  0.76392275  0.36722813  0.43143180  1
  C  C359  1  0.80259672  0.38318896  0.34572509  1
  C  C360  1  0.81774384  0.38621777  0.32461994  1
  C  C361  1  0.83375261  0.38887516  0.30098885  1
  C  C362  1  0.75061145  0.37448202  0.41785810  1
  C  C363  1  0.99285445  0.18096195  0.00211005  1
  C  C364  1  0.98124642  0.18330848  0.96639799  1
  C  C365  1  0.98122822  0.20164423  0.96632304  1
  C  C366  1  0.99299448  0.21604370  0.00177391  1
  C  C367  1  0.01481891  0.21865852  0.00054612  1
  C  C368  1  0.01476979  0.20026471  0.00066558  1
  C  C369  1  0.98273795  0.18420961  0.03937485  1
  C  C370  1  0.98274926  0.20257766  0.03916130  1
  C  C371  1  0.99229990  0.16093065  0.00211408  1
  C  C372  1  0.99185047  0.14400583  0.00176224  1
  C  C373  1  0.99274725  0.23588782  0.00105464  1
  C  C374  1  0.99130118  0.25194458  0.00002687  1
  C  C375  1  0.20994555  0.07661666  0.00188595  1
  C  C376  1  0.21252924  0.06490610  0.96646306  1
  C  C377  1  0.23110098  0.06548418  0.96641100  1
  C  C378  1  0.24531723  0.07787214  0.00166421  1
  C  C379  1  0.23181295  0.06689599  0.03865520  1
  C  C380  1  0.21323768  0.06630690  0.03883078  1
  C  C381  1  0.22869072  0.09887093  0.00027516  1
  C  C382  1  0.24728861  0.09959908  0.00022386  1
  C  C383  1  0.19022227  0.07645862  0.00188417  1
  C  C384  1  0.17361470  0.07651012  0.00170107  1
  C  C385  1  0.26571682  0.07924284  0.00184693  1
  C  C386  1  0.28389886  0.08267716  0.00267582  1
  C  C387  1  0.88050337  0.85544909  0.00175331  1
  C  C388  1  0.87181578  0.84787304  0.95955592  1
  C  C389  1  0.85336128  0.82957094  0.95926308  1
  C  C390  1  0.84529187  0.82053255  0.00116036  1
  C  C391  1  0.84455722  0.83821576  0.02375147  1
  C  C392  1  0.86301048  0.85655959  0.02404529  1
  C  C393  1  0.88159704  0.83729164  0.02121914  1
  C  C394  1  0.86315185  0.81898668  0.02096797  1
  C  C395  1  0.90057141  0.87493258  0.00172309  1
  C  C396  1  0.91739200  0.89155662  0.00137778  1
  C  C397  1  0.82533136  0.80049309  0.00021059  1
  C  C398  1  0.80910648  0.78306160  -0.00092374  1
  O  O399  1  0.88624069  0.35007612  0.91114571  1
  O  O400  1  0.89086529  0.34907571  0.10653661  1
  O  O401  1  0.94137317  0.32510884  0.98928359  1
  O  O402  1  0.48894272  0.16324239  0.09620128  1
  O  O403  1  0.48296628  0.16169202  0.89976785  1
  O  O404  1  0.40891262  0.13830063  0.01668217  1
  O  O405  1  0.71133925  0.57977379  0.91038662  1
  O  O406  1  0.71213035  0.58537701  0.10547773  1
  O  O407  1  0.73601574  0.65965169  0.98807224  1
  O  O408  1  0.65509378  0.35048756  0.45756884  1
  O  O409  1  0.71623719  0.41535998  0.45781937  1
  O  O410  1  0.72035754  0.35453950  0.45944300  1
  O  O411  1  0.67844213  0.33731744  0.54847113  1
  O  O412  1  0.73441800  0.39010627  0.54666870  1
  O  O413  1  0.68159511  0.39219843  0.54584728  1
  O  O414  1  0.65564180  0.34965661  0.54287809  1
  O  O415  1  0.71684705  0.41486586  0.54750231  1
  O  O416  1  0.71971153  0.35440288  0.54723569  1
  O  O417  1  0.67720926  0.33727551  0.45889125  1
  O  O418  1  0.73444250  0.39014399  0.45694648  1
  O  O419  1  0.68096345  0.39272359  0.45740108  1
