# generated using pymatgen
data_CdCo2H200C276S4(NO)12
_symmetry_space_group_name_H-M   'P 1'
_cell_length_a   73.28794890
_cell_length_b   73.26469103
_cell_length_c   32.21766202
_cell_angle_alpha   90.26563020
_cell_angle_beta   90.24852494
_cell_angle_gamma   75.66587173
_symmetry_Int_Tables_number   1
_chemical_formula_structural   CdCo2H200C276S4(NO)12
_chemical_formula_sum   'Cd1 Co2 H200 C276 S4 N12 O12'
_cell_volume   167601.96145432
_cell_formula_units_Z   1
loop_
 _symmetry_equiv_pos_site_id
 _symmetry_equiv_pos_as_xyz
  1  'x, y, z'
loop_
 _atom_site_type_symbol
 _atom_site_label
 _atom_site_symmetry_multiplicity
 _atom_site_fract_x
 _atom_site_fract_y
 _atom_site_fract_z
 _atom_site_occupancy
  Cd  Cd0  1  0.51799467  0.50892351  0.50329975  1
  Co  Co1  1  0.01967968  0.49937527  0.00303553  1
  Co  Co2  1  0.52754912  0.00721527  0.00354279  1
  H  H3  1  0.02561380  0.46599101  0.95062316  1
  H  H4  1  0.00974232  0.45142667  0.89543401  1
  H  H5  1  0.96685233  0.50351414  0.89006957  1
  H  H6  1  0.98293266  0.51503206  0.94947810  1
  H  H7  1  0.01374918  0.53291567  0.95166702  1
  H  H8  1  0.02952331  0.54753796  0.89692351  1
  H  H9  1  0.07253774  0.49551477  0.89106255  1
  H  H10  1  0.05661082  0.48396491  0.95017357  1
  H  H11  1  0.06030980  0.48984706  0.03317405  1
  H  H12  1  0.07894839  0.50200593  0.08742462  1
  H  H13  1  0.02685687  0.53852268  0.13008253  1
  H  H14  1  0.01016814  0.52380984  0.07686856  1
  H  H15  1  0.03598768  0.45417285  0.01765814  1
  H  H16  1  0.97914004  0.50900369  0.03384374  1
  H  H17  1  0.96051224  0.49694175  0.08758253  1
  H  H18  1  0.01254355  0.46035235  0.13034610  1
  H  H19  1  0.02920192  0.47500348  0.07754557  1
  H  H20  1  0.00358005  0.54480277  0.01806956  1
  H  H21  1  0.49401636  0.01314442  0.05491994  1
  H  H22  1  0.47939379  0.99736375  0.10965302  1
  H  H23  1  0.53140655  0.95434522  0.11549162  1
  H  H24  1  0.54295871  0.97027854  0.05639456  1
  H  H25  1  0.56092217  0.00126714  0.05595555  1
  H  H26  1  0.57547431  0.01714198  0.11116025  1
  H  H27  1  0.52341162  0.06006033  0.11652063  1
  H  H28  1  0.51190458  0.04397343  0.05710214  1
  H  H29  1  0.51791182  0.04776251  0.97274439  1
  H  H30  1  0.52996958  0.06639526  0.91900647  1
  H  H31  1  0.56656737  0.01435066  0.87622602  1
  H  H32  1  0.55191938  -0.00231272  0.92902423  1
  H  H33  1  0.48212708  0.02331554  0.98853518  1
  H  H34  1  0.53706187  0.96657934  0.97339281  1
  H  H35  1  0.52490656  0.94793207  0.91914329  1
  H  H36  1  0.48841783  1.00004185  0.87650145  1
  H  H37  1  0.50312197  0.01673675  0.92972091  1
  H  H38  1  0.57273626  0.99090537  0.98889858  1
  H  H39  1  0.50287593  0.47421211  0.48184430  1
  H  H40  1  0.54084466  0.48223269  0.57227354  1
  H  H41  1  0.51340716  0.43930352  0.48903491  1
  H  H42  1  0.55245295  0.44761505  0.58340899  1
  H  H43  1  0.52779957  0.54383474  0.45775630  1
  H  H44  1  0.49326201  0.54053615  0.55809162  1
  H  H45  1  0.52319107  0.57846756  0.46746780  1
  H  H46  1  0.48734671  0.57505419  0.57156942  1
  H  H47  1  0.55261204  0.52406357  0.52491725  1
  H  H48  1  0.54487898  0.48591526  0.43458156  1
  H  H49  1  0.58752604  0.51369176  0.51783888  1
  H  H50  1  0.57949350  0.47443856  0.42357690  1
  H  H51  1  0.48299388  0.49906534  0.54862794  1
  H  H52  1  0.48653969  0.53345967  0.44816897  1
  H  H53  1  0.44834477  0.50387736  0.53887649  1
  H  H54  1  0.45202632  0.53948267  0.43456151  1
  H  H55  1  0.09151222  0.58707147  0.24024028  1
  H  H56  1  0.10258536  0.54469601  0.26442115  1
  H  H57  1  0.12081834  0.53310568  0.31775744  1
  H  H58  1  0.14091542  0.53551809  0.37731676  1
  H  H59  1  0.12946835  0.59582750  0.36029977  1
  H  H60  1  0.10951806  0.59343789  0.29904958  1
  H  H61  1  0.16110902  0.53952715  0.41496711  1
  H  H62  1  0.13859675  0.54576985  0.43882648  1
  H  H63  1  0.12050116  0.57313486  0.52829517  1
  H  H64  1  0.12623017  0.55024006  0.50688892  1
  H  H65  1  0.12176075  0.57021121  0.47402601  1
  H  H66  1  0.18367960  0.54651766  0.40399421  1
  H  H67  1  0.20039026  0.53271378  0.43829819  1
  H  H68  1  0.20177834  0.55564726  0.42416364  1
  H  H69  1  0.17680394  0.58627531  0.59539770  1
  H  H70  1  0.19164909  0.59208702  0.55670435  1
  H  H71  1  0.19848548  0.57052601  0.58360256  1
  H  H72  1  0.21525303  0.56080546  0.53023025  1
  H  H73  1  0.21544339  0.55327837  0.47764072  1
  H  H74  1  0.23961648  0.55580992  0.49389997  1
  H  H75  1  0.27053920  0.56087290  0.49837554  1
  H  H76  1  0.24720240  0.62119405  0.48157700  1
  H  H77  1  0.21528863  0.61539922  0.47730334  1
  H  H78  1  0.28399590  0.60694965  0.48889751  1
  H  H79  1  0.29223546  0.56416966  0.50912596  1
  H  H80  1  0.14916527  0.59560598  0.58034114  1
  H  H81  1  0.13052481  0.58519478  0.56753269  1
  H  H82  1  0.12570857  0.60293943  0.62495921  1
  H  H83  1  0.10220155  0.60834906  0.68049055  1
  H  H84  1  0.12338634  0.55002474  0.71924262  1
  H  H85  1  0.14694773  0.54542966  0.66407913  1
  H  H86  1  0.08636116  0.59489766  0.74157854  1
  H  H87  1  0.11002666  0.55492853  0.76476764  1
  H  H88  1  0.58535119  0.09694001  0.25125166  1
  H  H89  1  0.62550090  0.07085125  0.25993943  1
  H  H90  1  0.64426724  0.08154501  0.31805791  1
  H  H91  1  0.64541429  0.10123908  0.37914278  1
  H  H92  1  0.58702056  0.12973682  0.36137473  1
  H  H93  1  0.58524931  0.11010443  0.30058166  1
  H  H94  1  0.64395938  0.12692172  0.42156121  1
  H  H95  1  0.63513584  0.10913543  0.44554335  1
  H  H96  1  0.60837437  0.10688523  0.53552325  1
  H  H97  1  0.63091082  0.10072443  0.51287413  1
  H  H98  1  0.61051221  0.10582536  0.48103776  1
  H  H99  1  0.63403214  0.15413070  0.40519067  1
  H  H100  1  0.64940442  0.16233566  0.43900028  1
  H  H101  1  0.62757022  0.17736637  0.42384419  1
  H  H102  1  0.59437621  0.17130322  0.59528478  1
  H  H103  1  0.59020986  0.18882405  0.55641419  1
  H  H104  1  0.61167101  0.18339841  0.58432198  1
  H  H105  1  0.62096260  0.19496486  0.52821209  1
  H  H106  1  0.62636282  0.19205356  0.47430323  1
  H  H107  1  0.62448089  0.21859817  0.49794369  1
  H  H108  1  0.61865601  0.25265475  0.50435130  1
  H  H109  1  0.55917850  0.25816656  0.48306031  1
  H  H110  1  0.56504637  0.22328893  0.47923574  1
  H  H111  1  0.56971150  0.28609354  0.49243917  1
  H  H112  1  0.61215193  0.28324555  0.50907996  1
  H  H113  1  0.58817127  0.14833939  0.58727732  1
  H  H114  1  0.59564910  0.12444934  0.57287598  1
  H  H115  1  0.57905222  0.13333926  0.62842875  1
  H  H116  1  0.56993121  0.11387418  0.68229374  1
  H  H117  1  0.62799532  0.09597750  0.72316064  1
  H  H118  1  0.63716947  0.11503907  0.66720483  1
  H  H119  1  0.57569433  0.09453910  0.73716522  1
  H  H120  1  0.61559928  0.07924275  0.77470444  1
  H  H121  1  0.92995963  0.44156945  0.75535323  1
  H  H122  1  0.95603681  0.40140632  0.74661860  1
  H  H123  1  0.94534764  0.38263680  0.68849327  1
  H  H124  1  0.92566233  0.38148672  0.62741868  1
  H  H125  1  0.89717301  0.43989914  0.64523401  1
  H  H126  1  0.91679405  0.44167125  0.70602284  1
  H  H127  1  0.89997330  0.38294770  0.58500745  1
  H  H128  1  0.91775254  0.39177153  0.56101105  1
  H  H129  1  0.92000889  0.41853927  0.47106194  1
  H  H130  1  0.92616575  0.39599875  0.49370263  1
  H  H131  1  0.92106405  0.41640585  0.52554569  1
  H  H132  1  0.87276640  0.39288172  0.60139413  1
  H  H133  1  0.86457639  0.37750104  0.56756807  1
  H  H134  1  0.84953792  0.39933538  0.58275006  1
  H  H135  1  0.85561595  0.43252422  0.41131014  1
  H  H136  1  0.83809292  0.43670375  0.45018227  1
  H  H137  1  0.84352360  0.41522712  0.42229200  1
  H  H138  1  0.83195526  0.40593905  0.47838897  1
  H  H139  1  0.83484185  0.40056433  0.53230503  1
  H  H140  1  0.80830343  0.40241671  0.50861574  1
  H  H141  1  0.77426299  0.40820186  0.50222052  1
  H  H142  1  0.76868127  0.46771323  0.52346414  1
  H  H143  1  0.80353867  0.46187983  0.52730807  1
  H  H144  1  0.74075308  0.45711519  0.51404305  1
  H  H145  1  0.74370606  0.41461961  0.49762548  1
  H  H146  1  0.87856893  0.43874848  0.41933887  1
  H  H147  1  0.90245095  0.43126552  0.43372073  1
  H  H148  1  0.89355614  0.44787109  0.37816647  1
  H  H149  1  0.91301701  0.45699558  0.32429745  1
  H  H150  1  0.93092885  0.39891057  0.28341335  1
  H  H151  1  0.91186907  0.38973374  0.33936809  1
  H  H152  1  0.93235267  0.45122919  0.26941300  1
  H  H153  1  0.94765747  0.41130780  0.23186626  1
  H  H154  1  0.43986236  0.93539043  0.76634195  1
  H  H155  1  0.48222994  0.92430249  0.74216461  1
  H  H156  1  0.49381887  0.90606358  0.68881005  1
  H  H157  1  0.49140850  0.88595499  0.62924741  1
  H  H158  1  0.43111466  0.89741762  0.64628950  1
  H  H159  1  0.43350308  0.91737419  0.70755200  1
  H  H160  1  0.48739951  0.86576439  0.59158084  1
  H  H161  1  0.48115988  0.88828352  0.56774233  1
  H  H162  1  0.45381076  0.90638069  0.47828847  1
  H  H163  1  0.47669565  0.90064800  0.49969117  1
  H  H164  1  0.45672608  0.90512427  0.53255768  1
  H  H165  1  0.48039475  0.84319992  0.60256693  1
  H  H166  1  0.49420695  0.82648563  0.56825947  1
  H  H167  1  0.47128156  0.82508655  0.58239366  1
  H  H168  1  0.44065778  0.85006459  0.41119129  1
  H  H169  1  0.43484229  0.83521963  0.44988045  1
  H  H170  1  0.45639773  0.82837412  0.42296598  1
  H  H171  1  0.46612744  0.81159531  0.47632814  1
  H  H172  1  0.47365472  0.81140945  0.52890854  1
  H  H173  1  0.47110235  0.78719802  0.51266713  1
  H  H174  1  0.46598573  0.75626986  0.50802801  1
  H  H175  1  0.40571368  0.77969470  0.52503314  1
  H  H176  1  0.41154498  0.81160281  0.52929019  1
  H  H177  1  0.41979478  0.74297391  0.51768615  1
  H  H178  1  0.46263553  0.73443492  0.49809041  1
  H  H179  1  0.43133495  0.87770813  0.42625058  1
  H  H180  1  0.44173691  0.89635617  0.43907984  1
  H  H181  1  0.42400157  0.90118016  0.38164692  1
  H  H182  1  0.41859485  0.92468606  0.32612001  1
  H  H183  1  0.47690612  0.90349916  0.28734463  1
  H  H184  1  0.48149780  0.87993716  0.34249968  1
  H  H185  1  0.43204254  0.94052128  0.26501216  1
  H  H186  1  0.47201395  0.91686100  0.24184444  1
  H  H187  1  0.38488273  0.52177495  0.51812658  1
  H  H188  1  0.35052538  0.53615798  0.52466590  1
  H  H189  1  0.35707584  0.58468655  0.45730272  1
  H  H190  1  0.39146816  0.57030764  0.45097563  1
  H  H191  1  0.53421061  0.37617246  0.53731390  1
  H  H192  1  0.54884574  0.34189526  0.53048276  1
  H  H193  1  0.60202638  0.35388449  0.50181234  1
  H  H194  1  0.58727231  0.38819050  0.50867953  1
  H  H195  1  0.64221506  0.46826416  0.54921731  1
  H  H196  1  0.67627823  0.45285967  0.55683765  1
  H  H197  1  0.68168262  0.44917874  0.42384296  1
  H  H198  1  0.64756491  0.46460431  0.41644049  1
  H  H199  1  0.48718523  0.63764276  0.45627950  1
  H  H200  1  0.47252125  0.67198825  0.45068652  1
  H  H201  1  0.45997688  0.67407512  0.58115218  1
  H  H202  1  0.47470825  0.63969678  0.58671053  1
  C  C203  1  0.01176940  0.47337620  0.93839066  1
  C  C204  1  0.00299094  0.46539596  0.90759768  1
  C  C205  1  0.98531864  0.47517873  0.89104436  1
  C  C206  1  0.97891896  0.49405298  0.90501674  1
  C  C207  1  0.98825194  0.50078030  0.93721187  1
  C  C208  1  0.02758752  0.52554378  0.93938446  1
  C  C209  1  0.03627337  0.53355116  0.90885323  1
  C  C210  1  0.05389376  0.52374185  0.89224562  1
  C  C211  1  0.06043058  0.50490501  0.90599802  1
  C  C212  1  0.05118649  0.49817879  0.93799543  1
  C  C213  1  0.05353897  0.50115172  0.05436472  1
  C  C214  1  0.06385108  0.50814002  0.08399489  1
  C  C215  1  0.05474330  0.52327475  0.10980593  1
  C  C216  1  0.03477668  0.52819891  0.10806841  1
  C  C217  1  0.02550635  0.52016174  0.07857676  1
  C  C218  1  0.98589369  0.49762820  0.05479207  1
  C  C219  1  0.97558651  0.49069932  0.08423471  1
  C  C220  1  0.98463748  0.47558039  0.11009779  1
  C  C221  1  0.00459143  0.47061426  0.10831889  1
  C  C222  1  0.01386082  0.47860271  0.07897688  1
  C  C223  1  0.50138641  0.99930277  0.06719543  1
  C  C224  1  0.49337874  0.99061342  0.09772019  1
  C  C225  1  0.50318534  0.97298930  0.11431753  1
  C  C226  1  0.52201917  0.96645384  0.10056308  1
  C  C227  1  0.52874639  0.97570164  0.06857311  1
  C  C228  1  0.55353945  0.01511813  0.06819212  1
  C  C229  1  0.56151327  0.02389823  0.09899372  1
  C  C230  1  0.55173458  0.04157943  0.11555085  1
  C  C231  1  0.53287021  0.04798611  0.10157323  1
  C  C232  1  0.52614863  0.03865020  0.06937123  1
  C  C233  1  0.52928834  0.04100788  0.95179358  1
  C  C234  1  0.53621463  0.05131767  0.92235120  1
  C  C235  1  0.55133419  0.04226504  0.89648453  1
  C  C236  1  0.55630428  0.02230505  0.89825726  1
  C  C237  1  0.54831817  0.01303305  0.92759851  1
  C  C238  1  0.52576458  0.97335164  0.95220489  1
  C  C239  1  0.51877932  0.96303554  0.92257298  1
  C  C240  1  0.50365600  0.97214714  0.89676216  1
  C  C241  1  0.49873570  0.99212014  0.89850947  1
  C  C242  1  0.50676810  0.00139365  0.92800464  1
  C  C243  1  0.51392296  0.46774102  0.50382791  1
  C  C244  1  0.53508426  0.47222925  0.55450082  1
  C  C245  1  0.52022274  0.44844750  0.50696705  1
  C  C246  1  0.54201423  0.45302640  0.55934118  1
  C  C247  1  0.53559780  0.44043320  0.53312527  1
  C  C248  1  0.51910239  0.55129506  0.48292928  1
  C  C249  1  0.49987473  0.54936913  0.53908862  1
  C  C250  1  0.51607231  0.57056124  0.48775180  1
  C  C251  1  0.49619874  0.56852257  0.54570654  1
  C  C252  1  0.50359967  0.57995224  0.51869057  1
  C  C253  1  0.55914549  0.51301742  0.50297036  1
  C  C254  1  0.55482317  0.49175232  0.45236154  1
  C  C255  1  0.57844371  0.50682827  0.49984687  1
  C  C256  1  0.57403833  0.48492046  0.44754843  1
  C  C257  1  0.58656788  0.49150491  0.47364238  1
  C  C258  1  0.47558296  0.50779193  0.52345390  1
  C  C259  1  0.47764998  0.52693028  0.46720508  1
  C  C260  1  0.45630619  0.51099063  0.51871310  1
  C  C261  1  0.45849646  0.53073707  0.46062189  1
  C  C262  1  0.44698751  0.52363307  0.48799181  1
  C  C263  1  0.09257830  0.57195344  0.23955619  1
  C  C264  1  0.10278959  0.55943714  0.26874046  1
  C  C265  1  0.11372579  0.56288705  0.30343809  1
  C  C266  1  0.12274817  0.54684700  0.32692048  1
  C  C267  1  0.13380789  0.54826496  0.36080640  1
  C  C268  1  0.13589711  0.56598581  0.37297460  1
  C  C269  1  0.12746392  0.58218618  0.35038666  1
  C  C270  1  0.11634375  0.58074051  0.31606989  1
  C  C271  1  0.15137699  0.55063976  0.43266362  1
  C  C272  1  0.16043772  0.55583276  0.47084274  1
  C  C273  1  0.17978498  0.55511920  0.46907953  1
  C  C274  1  0.18772987  0.56256842  0.50305200  1
  C  C275  1  0.17675782  0.57151472  0.53679428  1
  C  C276  1  0.15730104  0.57239216  0.53714139  1
  C  C277  1  0.14902207  0.56424839  0.50458847  1
  C  C278  1  0.12844717  0.56451056  0.50347633  1
  C  C279  1  0.19186904  0.54714016  0.43226894  1
  C  C280  1  0.18625514  0.58053693  0.56971434  1
  C  C281  1  0.20770471  0.56350088  0.50034999  1
  C  C282  1  0.22544143  0.58544021  0.48680251  1
  C  C283  1  0.24108438  0.57023430  0.49195632  1
  C  C284  1  0.25889795  0.57326330  0.49409860  1
  C  C285  1  0.26186142  0.59157534  0.49049722  1
  C  C286  1  0.24560392  0.60683736  0.48435866  1
  C  C287  1  0.22766802  0.60373937  0.48208459  1
  C  C288  1  0.28095270  0.59319714  0.49219126  1
  C  C289  1  0.29548765  0.57723979  0.49880619  1
  C  C290  1  0.14578221  0.58207038  0.57297852  1
  C  C291  1  0.13725819  0.57357236  0.64026426  1
  C  C292  1  0.12485439  0.59135105  0.64542034  1
  C  C293  1  0.11170031  0.59436620  0.67721702  1
  C  C294  1  0.11042894  0.57962943  0.70511188  1
  C  C295  1  0.12367836  0.56198335  0.69946226  1
  C  C296  1  0.13705953  0.55915252  0.66814493  1
  C  C297  1  0.09652708  0.58138056  0.73724001  1
  C  C298  1  0.09692892  0.56621870  0.76373527  1
  C  C299  1  0.59613847  0.08366580  0.24675916  1
  C  C300  1  0.61290298  0.08142130  0.26927357  1
  C  C301  1  0.61447922  0.09350006  0.30396374  1
  C  C302  1  0.63142959  0.09181588  0.32733239  1
  C  C303  1  0.63219178  0.10294429  0.36208550  1
  C  C304  1  0.61606804  0.11637923  0.37480645  1
  C  C305  1  0.59945134  0.11899539  0.35168833  1
  C  C306  1  0.59861396  0.10776004  0.31719053  1
  C  C307  1  0.63156690  0.12415264  0.43717244  1
  C  C308  1  0.62540019  0.13703808  0.47363326  1
  C  C309  1  0.62549085  0.15623594  0.46983213  1
  C  C310  1  0.61759509  0.16884371  0.50195968  1
  C  C311  1  0.60941455  0.16269970  0.53726077  1
  C  C312  1  0.60912464  0.14355208  0.53968626  1
  C  C313  1  0.61711284  0.13049381  0.50833486  1
  C  C314  1  0.61666899  0.11009144  0.50964342  1
  C  C315  1  0.63445572  0.16284432  0.43278046  1
  C  C316  1  0.60099991  0.17710151  0.56982841  1
  C  C317  1  0.61694681  0.18933703  0.49864767  1
  C  C318  1  0.59498923  0.21878716  0.48949415  1
  C  C319  1  0.61003589  0.22711435  0.49573848  1
  C  C320  1  0.60674296  0.24653187  0.49865744  1
  C  C321  1  0.58831452  0.25831059  0.49433510  1
  C  C322  1  0.57342842  0.24937097  0.48677161  1
  C  C323  1  0.57664875  0.22993000  0.48453592  1
  C  C324  1  0.58435622  0.27847795  0.49714503  1
  C  C325  1  0.59704280  0.28936876  0.50534496  1
  C  C326  1  0.60053248  0.13733789  0.57735541  1
  C  C327  1  0.60888247  0.12457405  0.64342632  1
  C  C328  1  0.58986504  0.12478799  0.64840404  1
  C  C329  1  0.58466512  0.11418175  0.67933031  1
  C  C330  1  0.59802216  0.10350419  0.70745808  1
  C  C331  1  0.61719240  0.10407463  0.70250003  1
  C  C332  1  0.62245912  0.11474675  0.67116999  1
  C  C333  1  0.59085622  0.09315901  0.73858243  1
  C  C334  1  0.60036849  0.08180630  0.77042027  1
  C  C335  1  0.94322774  0.43077665  0.75983291  1
  C  C336  1  0.94547009  0.41400844  0.73730087  1
  C  C337  1  0.93339545  0.41243314  0.70261394  1
  C  C338  1  0.93507974  0.39547788  0.67923179  1
  C  C339  1  0.92395558  0.39471422  0.64448376  1
  C  C340  1  0.91052439  0.41084223  0.63177828  1
  C  C341  1  0.90791006  0.42746434  0.65490824  1
  C  C342  1  0.91914002  0.42830245  0.68940284  1
  C  C343  1  0.90274058  0.39534443  0.56940263  1
  C  C344  1  0.88985526  0.40151766  0.53295773  1
  C  C345  1  0.87066027  0.40143160  0.53676515  1
  C  C346  1  0.85805144  0.40933724  0.50466028  1
  C  C347  1  0.86420599  0.41750250  0.46934843  1
  C  C348  1  0.88334967  0.41778931  0.46691339  1
  C  C349  1  0.89640275  0.40980234  0.49825625  1
  C  C350  1  0.91680019  0.41024492  0.49694028  1
  C  C351  1  0.86405813  0.39245600  0.57380681  1
  C  C352  1  0.84981524  0.42590737  0.43677409  1
  C  C353  1  0.83756007  0.40997863  0.50795630  1
  C  C354  1  0.80808427  0.43192239  0.51705774  1
  C  C355  1  0.79977591  0.41686099  0.51081944  1
  C  C356  1  0.78036314  0.42013232  0.50791844  1
  C  C357  1  0.76855908  0.43855215  0.51224982  1
  C  C358  1  0.77748187  0.45346046  0.51975899  1
  C  C359  1  0.79691783  0.45026070  0.52199848  1
  C  C360  1  0.74839239  0.44246101  0.50950026  1
  C  C361  1  0.73752922  0.42971303  0.50157387  1
  C  C362  1  0.88956554  0.42638205  0.42924477  1
  C  C363  1  0.90232781  0.41803071  0.36315913  1
  C  C364  1  0.90210958  0.43705458  0.35818601  1
  C  C365  1  0.91271333  0.44225629  0.32725687  1
  C  C366  1  0.92339407  0.42889447  0.29912281  1
  C  C367  1  0.92282864  0.40971757  0.30407745  1
  C  C368  1  0.91215782  0.40444931  0.33540773  1
  C  C369  1  0.93373755  0.43606151  0.26799640  1
  C  C370  1  0.94509433  0.42654373  0.23615816  1
  C  C371  1  0.45497564  0.93432324  0.76702413  1
  C  C372  1  0.46749305  0.92410191  0.73784273  1
  C  C373  1  0.46404549  0.91316125  0.70314402  1
  C  C374  1  0.48008210  0.90413301  0.67965290  1
  C  C375  1  0.47866495  0.89306801  0.64576491  1
  C  C376  1  0.46094848  0.89098204  0.63360300  1
  C  C377  1  0.44475189  0.89942039  0.65620019  1
  C  C378  1  0.44619678  0.91054458  0.69052152  1
  C  C379  1  0.47629089  0.87549928  0.57389643  1
  C  C380  1  0.47109898  0.86643528  0.53571691  1
  C  C381  1  0.47180607  0.84708366  0.53748107  1
  C  C382  1  0.46435961  0.83913272  0.50351335  1
  C  C383  1  0.45541448  0.85010849  0.46978342  1
  C  C384  1  0.45454042  0.86957094  0.46943821  1
  C  C385  1  0.46268640  0.87785308  0.50198258  1
  C  C386  1  0.46242808  0.89843335  0.50310321  1
  C  C387  1  0.47978115  0.83500310  0.57428976  1
  C  C388  1  0.44639189  0.84061020  0.43686633  1
  C  C389  1  0.46343373  0.81914840  0.50621192  1
  C  C390  1  0.44149282  0.80140781  0.51978506  1
  C  C391  1  0.45667780  0.78574250  0.51462180  1
  C  C392  1  0.45362352  0.76793018  0.51245221  1
  C  C393  1  0.43530672  0.76499575  0.51610754  1
  C  C394  1  0.42007171  0.78127663  0.52224560  1
  C  C395  1  0.42319052  0.79920847  0.52451116  1
  C  C396  1  0.43358455  0.74592496  0.51442218  1
  C  C397  1  0.44945329  0.73128037  0.50794415  1
  C  C398  1  0.44486456  0.88109416  0.43361405  1
  C  C399  1  0.45336142  0.88962732  0.36632802  1
  C  C400  1  0.43558776  0.90203271  0.36118076  1
  C  C401  1  0.43257413  0.91518664  0.32938535  1
  C  C402  1  0.44730762  0.91645724  0.30148327  1
  C  C403  1  0.46494935  0.90320783  0.30712761  1
  C  C404  1  0.46777854  0.88982626  0.33844216  1
  C  C405  1  0.44555738  0.93035746  0.26935163  1
  C  C406  1  0.46071813  0.92995642  0.24285678  1
  C  C407  1  0.42719455  0.52993405  0.48468470  1
  C  C408  1  0.41011708  0.53664578  0.48362632  1
  C  C409  1  0.39058942  0.54503673  0.48454016  1
  C  C410  1  0.37854044  0.53557119  0.50498732  1
  C  C411  1  0.35955378  0.54352749  0.50842010  1
  C  C412  1  0.35134506  0.56150634  0.49110286  1
  C  C413  1  0.36336409  0.57088382  0.47044076  1
  C  C414  1  0.38239851  0.56292967  0.46706481  1
  C  C415  1  0.33177673  0.56991221  0.49320910  1
  C  C416  1  0.31457410  0.57603541  0.49499433  1
  C  C417  1  0.54396215  0.42086930  0.53235076  1
  C  C418  1  0.55138971  0.40397196  0.52928586  1
  C  C419  1  0.55981907  0.38456437  0.52460460  1
  C  C420  1  0.54910221  0.37107353  0.52995675  1
  C  C421  1  0.55719885  0.35213237  0.52602998  1
  C  C422  1  0.57662781  0.34535634  0.51615618  1
  C  C423  1  0.58720337  0.35891608  0.50985927  1
  C  C424  1  0.57906285  0.37788249  0.51379784  1
  C  C425  1  0.58509498  0.32592321  0.51233581  1
  C  C426  1  0.59090123  0.30872411  0.50895899  1
  C  C427  1  0.60617919  0.48338030  0.47439004  1
  C  C428  1  0.62309203  0.47602333  0.47737108  1
  C  C429  1  0.64245973  0.46744399  0.48220511  1
  C  C430  1  0.65099646  0.46396338  0.52196313  1
  C  C431  1  0.66985696  0.45543554  0.52617383  1
  C  C432  1  0.68150311  0.44985365  0.49087999  1
  C  C433  1  0.67289563  0.45336012  0.45113364  1
  C  C434  1  0.65404869  0.46188422  0.44700311  1
  C  C435  1  0.70096711  0.44155509  0.49481974  1
  C  C436  1  0.71817026  0.43578158  0.49817670  1
  C  C437  1  0.49768938  0.59977623  0.52244252  1
  C  C438  1  0.49105244  0.61687173  0.52354135  1
  C  C439  1  0.48244493  0.63636148  0.52199816  1
  C  C440  1  0.48128614  0.64587195  0.48345921  1
  C  C441  1  0.47296839  0.66480069  0.48031744  1
  C  C442  1  0.46482552  0.67540155  0.51550306  1
  C  C443  1  0.46592380  0.66589409  0.55395781  1
  C  C444  1  0.47428048  0.64692120  0.55712150  1
  C  C445  1  0.45649459  0.69499201  0.51317339  1
  C  C446  1  0.45044519  0.71221478  0.51143116  1
  C  C447  1  0.06289379  0.53305476  0.86365084  1
  C  C448  1  0.06904441  0.54324871  0.84001123  1
  C  C449  1  0.07571501  0.55433733  0.81431559  1
  C  C450  1  0.08297116  0.56350862  0.78968524  1
  C  C451  1  0.56096199  0.05174258  0.86982205  1
  C  C452  1  0.57065158  0.05883119  0.84691265  1
  C  C453  1  0.58131647  0.06631592  0.82186044  1
  C  C454  1  0.59054205  0.07350073  0.79774295  1
  C  C455  1  0.97516249  0.46595042  0.13676112  1
  C  C456  1  0.96807415  0.45626017  0.15967093  1
  C  C457  1  0.96058848  0.44559547  0.18472303  1
  C  C458  1  0.95340192  0.43637049  0.20883946  1
  C  C459  1  0.49387265  0.96398612  0.14290720  1
  C  C460  1  0.48368048  0.95783489  0.16654886  1
  C  C461  1  0.47259402  0.95116348  0.19224730  1
  C  C462  1  0.46342335  0.94391117  0.21688695  1
  C  C463  1  0.56104260  0.05076789  0.14428376  1
  C  C464  1  0.57108676  0.05724400  0.16806969  1
  C  C465  1  0.58217396  0.06408720  0.19392882  1
  C  C466  1  0.59135509  0.07137273  0.21860823  1
  C  C467  1  0.06407532  0.53321722  0.13629328  1
  C  C468  1  0.07043495  0.54366574  0.15900047  1
  C  C469  1  0.07699898  0.55524573  0.18378529  1
  C  C470  1  0.08352180  0.56502571  0.20826913  1
  C  C471  1  0.97613027  0.46586742  0.86231752  1
  C  C472  1  0.96965039  0.45582370  0.83853126  1
  C  C473  1  0.96280385  0.44473686  0.81266948  1
  C  C474  1  0.95551691  0.43555766  0.78798517  1
  C  C475  1  0.49371697  0.96281517  0.87026845  1
  C  C476  1  0.48326664  0.95646231  0.84756023  1
  C  C477  1  0.47168474  0.94990461  0.82277891  1
  C  C478  1  0.46189772  0.94338629  0.79830906  1
  S  S479  1  0.04288587  0.46899091  0.00603038  1
  S  S480  1  0.99656187  0.53006870  0.00603724  1
  S  S481  1  0.49685579  0.03033597  0.00056577  1
  S  S482  1  0.55792237  0.98400465  0.00052866  1
  N  N483  1  0.00401341  0.49035991  0.95531982  1
  N  N484  1  0.03538838  0.50854255  0.95595310  1
  N  N485  1  0.03484849  0.50813630  0.04953433  1
  N  N486  1  0.00455368  0.49056938  0.04986940  1
  N  N487  1  0.51838541  0.99150170  0.05062262  1
  N  N488  1  0.53656608  0.02288025  0.05125932  1
  N  N489  1  0.53635131  0.02234375  0.95671274  1
  N  N490  1  0.51878593  0.99204908  0.95704031  1
  N  N491  1  0.54714921  0.50544640  0.48019534  1
  N  N492  1  0.48637875  0.51555306  0.49819875  1
  N  N493  1  0.52140533  0.47981363  0.52658578  1
  N  N494  1  0.51127902  0.54056037  0.50820821  1
  O  O495  1  0.14617024  0.56764367  0.40717709  1
  O  O496  1  0.15004628  0.56976901  0.60893582  1
  O  O497  1  0.20789786  0.58245136  0.48681883  1
  O  O498  1  0.61566890  0.12786770  0.40826495  1
  O  O499  1  0.61431167  0.13376773  0.61101234  1
  O  O500  1  0.59777205  0.19974248  0.48850232  1
  O  O501  1  0.89903639  0.41124431  0.59833075  1
  O  O502  1  0.89313541  0.41259961  0.39557402  1
  O  O503  1  0.82712354  0.42915717  0.51806327  1
  O  O504  1  0.45929115  0.88070687  0.59939410  1
  O  O505  1  0.45716388  0.87683571  0.39764719  1
  O  O506  1  0.44449244  0.81895247  0.51976671  1
