# generated using pymatgen
data_SiH226C338(N4O3)4
_symmetry_space_group_name_H-M   'P 1'
_cell_length_a   47.78234163
_cell_length_b   45.62239071
_cell_length_c   65.21682860
_cell_angle_alpha   89.33715235
_cell_angle_beta   91.24387285
_cell_angle_gamma   89.27659627
_symmetry_Int_Tables_number   1
_chemical_formula_structural   SiH226C338(N4O3)4
_chemical_formula_sum   'Si1 H226 C338 N16 O12'
_cell_volume   142114.27380875
_cell_formula_units_Z   1
loop_
 _symmetry_equiv_pos_site_id
 _symmetry_equiv_pos_as_xyz
  1  'x, y, z'
loop_
 _atom_site_type_symbol
 _atom_site_label
 _atom_site_symmetry_multiplicity
 _atom_site_fract_x
 _atom_site_fract_y
 _atom_site_fract_z
 _atom_site_occupancy
  Si  Si0  1  0.53347821  0.53295585  0.51307861  1
  H  H1  1  0.02028018  0.98157286  0.01274220  1
  H  H2  1  0.00004496  0.96826123  0.99184186  1
  H  H3  1  0.03651943  0.96260135  0.99259292  1
  H  H4  1  0.03856875  0.10736681  0.98473055  1
  H  H5  1  0.01644118  0.09401977  0.00419677  1
  H  H6  1  0.05275511  0.08722341  0.00602496  1
  H  H7  1  0.03334050  0.01008547  0.92309509  1
  H  H8  1  0.02364832  0.04808271  0.92089162  1
  H  H9  1  0.05848336  0.03818307  0.92704005  1
  H  H10  1  0.99962283  0.02998269  0.08914656  1
  H  H11  1  0.03189325  0.00976691  0.08935680  1
  H  H12  1  0.03229651  0.04824080  0.09026835  1
  H  H13  1  0.95409594  0.04053322  0.02229531  1
  H  H14  1  0.97366342  0.05970740  0.00359514  1
  H  H15  1  0.97118498  0.02133287  0.00246152  1
  H  H16  1  0.09484427  0.02444862  0.03156263  1
  H  H17  1  0.07906201  0.00679943  0.01029129  1
  H  H18  1  0.08305418  0.04516677  0.00983844  1
  H  H19  1  0.63667835  0.54022548  0.55463880  1
  H  H20  1  0.52734986  0.63352974  0.46242664  1
  H  H21  1  0.50173264  0.54948910  0.48317724  1
  H  H22  1  0.52626094  0.43891696  0.45765576  1
  H  H23  1  0.43553329  0.53691680  0.55845733  1
  H  H24  1  0.57893038  0.58681726  0.50701570  1
  H  H25  1  0.48650361  0.47908042  0.50888715  1
  H  H26  1  0.56080786  0.51683199  0.48231198  1
  H  H27  1  0.51521593  0.50310511  0.54245890  1
  H  H28  1  0.48305998  0.58411019  0.51415006  1
  H  H29  1  0.58907080  0.48817724  0.51265939  1
  H  H30  1  0.54996354  0.56023419  0.54488349  1
  H  H31  1  0.88437192  0.43209053  0.66692271  1
  H  H32  1  0.88191321  0.36823457  0.65152498  1
  H  H33  1  0.92056304  0.33595154  0.65773462  1
  H  H34  1  0.96848250  0.32481825  0.66971048  1
  H  H35  1  0.97615864  0.41282804  0.69215948  1
  H  H36  1  0.92819357  0.42453019  0.67976136  1
  H  H37  1  0.01676551  0.32714909  0.67217309  1
  H  H38  1  -0.00049973  0.31827390  0.69510777  1
  H  H39  1  0.01801698  0.31683104  0.74761216  1
  H  H40  1  0.01006794  0.29573555  0.72584108  1
  H  H41  1  -0.00098838  0.33292802  0.72681769  1
  H  H42  1  0.04654720  0.35087493  0.66033261  1
  H  H43  1  0.07475901  0.32537603  0.65911424  1
  H  H44  1  0.08119726  0.36323088  0.66217065  1
  H  H45  1  0.12011072  0.33820865  0.75015432  1
  H  H46  1  0.12866803  0.36459189  0.73128041  1
  H  H47  1  0.13757448  0.32730947  0.72803583  1
  H  H48  1  0.13682880  0.34089908  0.69713742  1
  H  H49  1  0.11722516  0.35149039  0.67466332  1
  H  H50  1  0.15838932  0.35666043  0.67344417  1
  H  H51  1  0.20322100  0.37578807  0.66450190  1
  H  H52  1  0.18403313  0.45731176  0.69574203  1
  H  H53  1  0.13805284  0.43668413  0.70560303  1
  H  H54  1  0.23163729  0.44887059  0.67781435  1
  H  H55  1  0.23672376  0.38553452  0.65973319  1
  H  H56  1  0.08374070  0.34037561  0.76256428  1
  H  H57  1  0.04970008  0.32558521  0.76237958  1
  H  H58  1  0.07052102  0.32626849  0.79201782  1
  H  H59  1  0.05890141  0.30570600  0.82556805  1
  H  H60  1  0.07586287  0.21839215  0.80287068  1
  H  H61  1  0.08596096  0.23968292  0.76905598  1
  H  H62  1  0.05440786  0.26380254  0.84923364  1
  H  H63  1  0.06661368  0.20265789  0.83074790  1
  H  H64  1  0.65774643  0.87433880  0.34730615  1
  H  H65  1  0.70643557  0.88448396  0.37845151  1
  H  H66  1  0.73735581  0.92375372  0.37332366  1
  H  H67  1  0.75386173  0.96680629  0.35450401  1
  H  H68  1  0.68736025  0.95684417  0.30965374  1
  H  H69  1  0.67053514  0.91344938  0.32834841  1
  H  H70  1  0.77057735  0.99592844  0.33069928  1
  H  H71  1  0.74445050  0.01402661  0.34489628  1
  H  H72  1  0.70285124  0.07907460  0.33646836  1
  H  H73  1  0.73045463  0.06332906  0.35132659  1
  H  H74  1  0.70567337  0.04060944  0.33877469  1
  H  H75  1  0.78454359  0.98856413  0.30398497  1
  H  H76  1  0.81267467  0.01323384  0.30184190  1
  H  H77  1  0.79328097  0.00251990  0.27981766  1
  H  H78  1  0.74100805  0.12537939  0.27521524  1
  H  H79  1  0.74906111  0.09902692  0.25635508  1
  H  H80  1  0.77605583  0.11661500  0.27026495  1
  H  H81  1  0.80067942  0.07819998  0.26394997  1
  H  H82  1  0.80697981  0.04013386  0.26870228  1
  H  H83  1  0.82820969  0.05528556  0.24452188  1
  H  H84  1  0.85129140  0.05827225  0.21194323  1
  H  H85  1  0.77153970  0.04654528  0.18021920  1
  H  H86  1  0.74824517  0.04412893  0.21375734  1
  H  H87  1  0.81452028  0.05074285  0.15987275  1
  H  H88  1  0.86983172  0.06082022  0.18453913  1
  H  H89  1  0.70792768  0.11558287  0.29123493  1
  H  H90  1  0.70061932  0.10673471  0.31695290  1
  H  H91  1  0.68103854  0.14492995  0.30252896  1
  H  H92  1  0.65226727  0.18391645  0.31762575  1
  H  H93  1  0.72522594  0.21415852  0.35175092  1
  H  H94  1  0.75363837  0.17419281  0.33715706  1
  H  H95  1  0.64807194  0.22695308  0.33970965  1
  H  H96  1  0.70354924  0.24423075  0.36236916  1
  H  H97  1  0.83717538  0.70056262  0.65190545  1
  H  H98  1  0.83319228  0.64867233  0.68320650  1
  H  H99  1  0.87412802  0.64036013  0.70572715  1
  H  H100  1  0.92253476  0.65193004  0.71630494  1
  H  H101  1  0.92446607  0.72053683  0.67003136  1
  H  H102  1  0.87613757  0.70878486  0.65900590  1
  H  H103  1  0.96718891  0.65810339  0.71597849  1
  H  H104  1  0.94899453  0.68506255  0.72999584  1
  H  H105  1  0.96363313  0.75583581  0.74789028  1
  H  H106  1  0.95613838  0.71899227  0.75350560  1
  H  H107  1  0.94579855  0.73459219  0.72951221  1
  H  H108  1  0.99489894  0.65324131  0.69495957  1
  H  H109  1  0.02304478  0.64082214  0.71095478  1
  H  H110  1  0.02942415  0.65928889  0.68749848  1
  H  H111  1  0.06505421  0.76770571  0.73531036  1
  H  H112  1  0.07444155  0.75355626  0.71109484  1
  H  H113  1  0.08379972  0.73435385  0.73392308  1
  H  H114  1  0.08486322  0.69499371  0.71567107  1
  H  H115  1  0.06567275  0.67133207  0.69927163  1
  H  H116  1  0.11070860  0.66757172  0.69550003  1
  H  H117  1  0.15610389  0.66055619  0.67982333  1
  H  H118  1  0.14011011  0.73676611  0.64112209  1
  H  H119  1  0.09434948  0.74378854  0.65738230  1
  H  H120  1  0.18355102  0.71002066  0.63669744  1
  H  H121  1  0.19607301  0.65561889  0.66441486  1
  H  H122  1  0.02748681  0.78626775  0.73661010  1
  H  H123  1  0.99377748  0.77964266  0.74605437  1
  H  H124  1  0.01320774  0.82137610  0.75531627  1
  H  H125  1  0.00233555  0.85971969  0.78007141  1
  H  H126  1  0.02006047  0.79829335  0.82990971  1
  H  H127  1  0.03016976  0.75985168  0.80473389  1
  H  H128  1  1.00020692  0.87777241  0.81443031  1
  H  H129  1  0.01040833  0.83267697  0.84975034  1
  H  H130  1  0.39383156  0.83052752  0.34064467  1
  H  H131  1  0.33623980  0.82042952  0.36118389  1
  H  H132  1  0.30279386  0.86246904  0.35742359  1
  H  H133  1  0.29274215  0.91336461  0.34636983  1
  H  H134  1  0.37660749  0.92048191  0.32305010  1
  H  H135  1  0.38745884  0.86991721  0.33496391  1
  H  H136  1  0.29545565  0.96041267  0.34483683  1
  H  H137  1  0.28689837  0.94260173  0.32157058  1
  H  H138  1  0.28564533  0.95956135  0.26959237  1
  H  H139  1  0.26614441  0.95138385  0.29143907  1
  H  H140  1  0.30172452  0.94033327  0.29029174  1
  H  H141  1  0.32126055  0.98996037  0.35602853  1
  H  H142  1  0.29666043  0.01906724  0.35804335  1
  H  H143  1  0.33275427  0.02637370  0.35499987  1
  H  H144  1  0.30730081  0.06605327  0.26677867  1
  H  H145  1  0.33300226  0.07589467  0.28545940  1
  H  H146  1  0.29733791  0.08474164  0.28893529  1
  H  H147  1  0.31039620  0.08519325  0.32070989  1
  H  H148  1  0.32264771  0.06494273  0.34264464  1
  H  H149  1  0.32620497  0.11189142  0.34463931  1
  H  H150  1  0.34460450  0.15904152  0.35509786  1
  H  H151  1  0.42166589  0.14003239  0.32400077  1
  H  H152  1  0.40246107  0.09245917  0.31308054  1
  H  H153  1  0.41804642  0.18600613  0.34270042  1
  H  H154  1  0.36204177  0.19952789  0.36392344  1
  H  H155  1  0.30839419  0.02784066  0.25423038  1
  H  H156  1  0.29447522  0.99212531  0.25523933  1
  H  H157  1  0.29467361  0.01253724  0.22598568  1
  H  H158  1  0.27435220  0.00012703  0.19243902  1
  H  H159  1  0.19141551  0.01868504  0.21528112  1
  H  H160  1  0.21221624  0.02888445  0.24927890  1
  H  H161  1  0.23429946  0.99841353  0.16851381  1
  H  H162  1  0.17609777  0.00726677  0.18784382  1
  H  H163  1  0.66112166  0.47802138  0.59081149  1
  H  H164  1  0.70094652  0.46506027  0.61321646  1
  H  H165  1  0.75438774  0.46671852  0.56051266  1
  H  H166  1  0.71395843  0.47939701  0.53881324  1
  H  H167  1  0.78700926  0.45427819  0.57775676  1
  H  H168  1  0.82699391  0.43919864  0.59897194  1
  H  H169  1  0.77564107  0.43696991  0.65204197  1
  H  H170  1  0.73507523  0.45215340  0.63120143  1
  H  H171  1  0.55001755  0.40490856  0.44119959  1
  H  H172  1  0.56705912  0.36207138  0.42255611  1
  H  H173  1  0.65041076  0.40106780  0.42162610  1
  H  H174  1  0.63167582  0.44366477  0.44011740  1
  H  H175  1  0.66266829  0.37319429  0.40685216  1
  H  H176  1  0.68171180  0.33234959  0.38727078  1
  H  H177  1  0.60133989  0.28998808  0.38687867  1
  H  H178  1  0.58121067  0.33038438  0.40662631  1
  H  H179  1  0.41341901  0.61346311  0.58745527  1
  H  H180  1  0.37411925  0.62857081  0.60816186  1
  H  H181  1  0.31739526  0.59870861  0.56049128  1
  H  H182  1  0.35731245  0.58417271  0.54034448  1
  H  H183  1  0.28435867  0.61280005  0.57649898  1
  H  H184  1  0.24475261  0.62975582  0.59595414  1
  H  H185  1  0.30014408  0.65975818  0.64356096  1
  H  H186  1  0.34027688  0.64297483  0.62448224  1
  H  H187  1  0.55328894  0.70301416  0.45470922  1
  H  H188  1  0.56894009  0.74400582  0.43385283  1
  H  H189  1  0.65088737  0.70264882  0.43095770  1
  H  H190  1  0.63432898  0.66239359  0.45198269  1
  H  H191  1  0.66446643  0.73591312  0.41441266  1
  H  H192  1  0.68141988  0.77692032  0.39450232  1
  H  H193  1  0.60078981  0.81911850  0.39673434  1
  H  H194  1  0.58311013  0.77834883  0.41671764  1
  H  H195  1  0.43641699  0.37341718  0.47648469  1
  H  H196  1  0.41925758  0.33399023  0.45502323  1
  H  H197  1  0.47473566  0.36198485  0.40718663  1
  H  H198  1  0.49084675  0.40143970  0.42902041  1
  H  H199  1  0.45967311  0.32930270  0.38904863  1
  H  H200  1  0.44249233  0.28929856  0.36812203  1
  H  H201  1  0.38806649  0.26270112  0.41611551  1
  H  H202  1  0.40463432  0.30237310  0.43739939  1
  H  H203  1  0.43458391  0.43584043  0.58179191  1
  H  H204  1  0.39252778  0.42074852  0.60003551  1
  H  H205  1  0.36247468  0.51214069  0.59763597  1
  H  H206  1  0.40549716  0.52596522  0.58036128  1
  H  H207  1  0.33094549  0.49997142  0.61393567  1
  H  H208  1  0.29169119  0.48191482  0.63424725  1
  H  H209  1  0.32728807  0.39425468  0.63477881  1
  H  H210  1  0.36696327  0.41098375  0.61472690  1
  H  H211  1  0.51014186  0.65053213  0.42713363  1
  H  H212  1  0.49116661  0.69373555  0.40824225  1
  H  H213  1  0.40819657  0.67383106  0.43154098  1
  H  H214  1  0.42902922  0.63110636  0.45021993  1
  H  H215  1  0.39224704  0.69890146  0.41480141  1
  H  H216  1  0.37015955  0.73783519  0.39368910  1
  H  H217  1  0.45042790  0.76149996  0.36967517  1
  H  H218  1  0.47365813  0.72289641  0.39069703  1
  H  H219  1  0.62337000  0.59514334  0.60924477  1
  H  H220  1  0.66512912  0.61175641  0.62836401  1
  H  H221  1  0.71223163  0.60666508  0.57177478  1
  H  H222  1  0.66928022  0.59105652  0.55367494  1
  H  H223  1  0.74360339  0.62521955  0.58566344  1
  H  H224  1  0.78293525  0.64607351  0.60503087  1
  H  H225  1  0.73297364  0.65073730  0.65923558  1
  H  H226  1  0.69295119  0.63025864  0.64042613  1
  C  C227  1  0.01998069  0.97881709  0.99603063  1
  C  C228  1  0.02459386  0.00665249  0.96277654  1
  C  C229  1  0.02377802  0.00699560  0.98456825  1
  C  C230  1  0.02707429  0.03433160  0.99452460  1
  C  C231  1  0.03130443  0.06098045  0.98331090  1
  C  C232  1  0.03263258  0.06027115  0.96152125  1
  C  C233  1  0.03059246  0.03271594  0.95171726  1
  C  C234  1  0.03490200  0.08868679  0.99500044  1
  C  C235  1  0.03656181  0.03185908  0.92952430  1
  C  C236  1  0.04811587  0.02860590  0.05142822  1
  C  C237  1  0.02166703  0.03138467  0.06077187  1
  C  C238  1  0.99698522  0.03559131  0.04859569  1
  C  C239  1  -0.00138134  0.03656951  0.02681492  1
  C  C240  1  0.02534762  0.03417397  0.01760370  1
  C  C241  1  0.05025028  0.02999732  0.02978175  1
  C  C242  1  0.02100846  0.02967261  0.08346847  1
  C  C243  1  0.97316024  0.03969919  0.01327310  1
  C  C244  1  0.07798902  0.02649699  0.01992617  1
  C  C245  1  0.59381273  0.55337086  0.54943143  1
  C  C246  1  0.51433956  0.58971576  0.47007406  1
  C  C247  1  0.51808689  0.56578037  0.48308241  1
  C  C248  1  0.54082881  0.56507127  0.49658430  1
  C  C249  1  0.56094883  0.58776393  0.49651511  1
  C  C250  1  0.55705319  0.61165306  0.48282847  1
  C  C251  1  0.53223611  0.61349733  0.47111523  1
  C  C252  1  0.50223588  0.45771028  0.48179436  1
  C  C253  1  0.50232631  0.47925385  0.49715724  1
  C  C254  1  0.52356011  0.50104804  0.49727847  1
  C  C255  1  0.54420017  0.50087955  0.48276712  1
  C  C256  1  0.54460999  0.47862540  0.46855365  1
  C  C257  1  0.52453741  0.45684638  0.46839216  1
  C  C258  1  0.45723115  0.56529010  0.53784791  1
  C  C259  1  0.45463632  0.54056808  0.55022299  1
  C  C260  1  0.47616268  0.51984020  0.55234144  1
  C  C261  1  0.50026344  0.52116547  0.54108426  1
  C  C262  1  0.50251444  0.54433648  0.52743014  1
  C  C263  1  0.48102807  0.56649349  0.52536695  1
  C  C264  1  0.61672350  0.53459394  0.54744692  1
  C  C265  1  0.61406800  0.50844938  0.53680150  1
  C  C266  1  0.58967890  0.50475031  0.52450294  1
  C  C267  1  0.56603341  0.52358846  0.52752783  1
  C  C268  1  0.56764688  0.54607196  0.54151417  1
  C  C269  1  0.87670784  0.41331568  0.65818982  1
  C  C270  1  0.89197770  0.38714173  0.65845354  1
  C  C271  1  0.92006072  0.38145644  0.66697484  1
  C  C272  1  0.93254347  0.35319771  0.66512689  1
  C  C273  1  0.95964811  0.34663725  0.67219239  1
  C  C274  1  0.97554738  0.36805053  0.68195811  1
  C  C275  1  0.96382575  0.39605253  0.68447592  1
  C  C276  1  0.93668777  0.40260154  0.67726482  1
  C  C277  1  0.01445587  0.33353147  0.68829303  1
  C  C278  1  0.04225694  0.33322831  0.69974933  1
  C  C279  1  0.06698347  0.34080338  0.68957983  1
  C  C280  1  0.09214253  0.34266157  0.70118523  1
  C  C281  1  0.09339680  0.33770791  0.72256897  1
  C  C282  1  0.06856245  0.32975189  0.73236576  1
  C  C283  1  0.04312732  0.32691870  0.72109817  1
  C  C284  1  0.01639498  0.31773537  0.73087723  1
  C  C285  1  0.06734090  0.34539893  0.66677052  1
  C  C286  1  0.12103790  0.34211375  0.73360760  1
  C  C287  1  0.11810948  0.35313515  0.69143868  1
  C  C288  1  0.14594360  0.39529120  0.69069989  1
  C  C289  1  0.16398790  0.37838138  0.67885374  1
  C  C290  1  0.18951821  0.38936674  0.67372504  1
  C  C291  1  0.19741089  0.41776615  0.68012598  1
  C  C292  1  0.17827768  0.43516207  0.69132449  1
  C  C293  1  0.15271362  0.42382518  0.69667976  1
  C  C294  1  0.22423904  0.42684438  0.67448250  1
  C  C295  1  0.24179530  0.40790964  0.66408317  1
  C  C296  1  0.07010194  0.32419784  0.75503719  1
  C  C297  1  0.07732131  0.28404736  0.77815099  1
  C  C298  1  0.07062823  0.30253980  0.79430636  1
  C  C299  1  0.06481663  0.29073488  0.81344519  1
  C  C300  1  0.06626395  0.25999254  0.81752672  1
  C  C301  1  0.07426537  0.24209319  0.80082831  1
  C  C302  1  0.08001460  0.25392576  0.78161270  1
  C  C303  1  0.06005668  0.24792059  0.83763281  1
  C  C304  1  0.06094718  0.21824624  0.84270022  1
  C  C305  1  0.67090725  0.87114414  0.36114635  1
  C  C306  1  0.69347345  0.88944067  0.36485618  1
  C  C307  1  0.70227747  0.91471101  0.35283250  1
  C  C308  1  0.72598771  0.93084562  0.35944389  1
  C  C309  1  0.73527542  0.95546012  0.34892967  1
  C  C310  1  0.72109882  0.96527757  0.33117627  1
  C  C311  1  0.69809452  0.94953529  0.32377868  1
  C  C312  1  0.68873382  0.92492229  0.33441985  1
  C  C313  1  0.75068056  0.00829505  0.32927244  1
  C  C314  1  0.75338021  0.03490207  0.31561227  1
  C  C315  1  0.77180745  0.03400482  0.29898224  1
  C  C316  1  0.77240076  0.05820961  0.28530382  1
  C  C317  1  0.75455830  0.08282271  0.28749822  1
  C  C318  1  0.73636134  0.08314019  0.30421438  1
  C  C319  1  0.73603289  0.05985632  0.31864642  1
  C  C320  1  0.71784450  0.06076503  0.33710942  1
  C  C321  1  0.79137450  0.00840237  0.29602145  1
  C  C322  1  0.75509331  0.10707615  0.27167851  1
  C  C323  1  0.79053186  0.05705244  0.26698834  1
  C  C324  1  0.78653401  0.05033529  0.23111420  1
  C  C325  1  0.81551517  0.05377373  0.23049353  1
  C  C326  1  0.82874901  0.05493220  0.21180471  1
  C  C327  1  0.81372055  0.05208614  0.19296521  1
  C  C328  1  0.78414394  0.04844537  0.19425285  1
  C  C329  1  0.77082633  0.04726882  0.21297920  1
  C  C330  1  0.82785839  0.05250038  0.17355204  1
  C  C331  1  0.85656075  0.05542185  0.17121719  1
  C  C332  1  0.71774344  0.10946932  0.30617845  1
  C  C333  1  0.71882098  0.15665036  0.31981718  1
  C  C334  1  0.69050999  0.15958168  0.31369201  1
  C  C335  1  0.67446825  0.18173147  0.32173594  1
  C  C336  1  0.68654184  0.20190535  0.33556703  1
  C  C337  1  0.71547276  0.19903320  0.34102037  1
  C  C338  1  0.73152518  0.17676386  0.33288236  1
  C  C339  1  0.67024553  0.22473773  0.34390397  1
  C  C340  1  0.68156810  0.24467132  0.35742451  1
  C  C341  1  0.82929462  0.68111508  0.65966334  1
  C  C342  1  0.84368580  0.66670886  0.67552213  1
  C  C343  1  0.87138428  0.67374006  0.68179937  1
  C  C344  1  0.88515278  0.65801529  0.69804638  1
  C  C345  1  0.91219039  0.66467074  0.70403209  1
  C  C346  1  0.92607683  0.68725544  0.69380823  1
  C  C347  1  0.91315886  0.70301903  0.67763793  1
  C  C348  1  0.88605608  0.69641854  0.67163126  1
  C  C349  1  0.96438323  0.68190574  0.71785027  1
  C  C350  1  0.99133469  0.69748689  0.72182384  1
  C  C351  1  0.01578803  0.68760736  0.71207751  1
  C  C352  1  0.04034096  0.70442153  0.71383108  1
  C  C353  1  0.04004704  0.73097519  0.72493301  1
  C  C354  1  0.01490622  0.74115387  0.73365707  1
  C  C355  1  0.99028201  0.72443409  0.73235962  1
  C  C356  1  0.96281432  0.73397964  0.74121192  1
  C  C357  1  0.01576652  0.65903319  0.70081324  1
  C  C358  1  0.06694410  0.74759200  0.72642606  1
  C  C359  1  0.06726914  0.69411289  0.70444164  1
  C  C360  1  0.09971892  0.70671949  0.67790189  1
  C  C361  1  0.11715875  0.68314452  0.68375655  1
  C  C362  1  0.14293141  0.67887942  0.67445185  1
  C  C363  1  0.15234259  0.69759393  0.65855693  1
  C  C364  1  0.13391216  0.72132023  0.65300345  1
  C  C365  1  0.10814321  0.72561783  0.66224087  1
  C  C366  1  0.17892548  0.69334691  0.64820264  1
  C  C367  1  0.19870513  0.67102675  0.65157573  1
  C  C368  1  0.01480788  0.76991915  0.74467608  1
  C  C369  1  0.02128430  0.78782659  0.77858502  1
  C  C370  1  0.01396909  0.81610279  0.77166971  1
  C  C371  1  0.00853575  0.83795397  0.78572043  1
  C  C372  1  0.01096077  0.83286890  0.80720323  1
  C  C373  1  0.01862001  0.80385170  0.81363329  1
  C  C374  1  0.02415306  0.78192157  0.79954881  1
  C  C375  1  0.00619146  0.85665300  0.82130680  1
  C  C376  1  0.00830676  0.85441772  0.84250586  1
  C  C377  1  0.37773555  0.82028042  0.34983605  1
  C  C378  1  0.35182339  0.83310853  0.35304597  1
  C  C379  1  0.34548254  0.86219568  0.34660581  1
  C  C380  1  0.31882279  0.87516191  0.34979577  1
  C  C381  1  0.31318908  0.90359805  0.34346673  1
  C  C382  1  0.33417844  0.91956898  0.33380782  1
  C  C383  1  0.36075651  0.90747177  0.33063076  1
  C  C384  1  0.36655297  0.87906181  0.33709924  1
  C  C385  1  0.30104960  0.95865844  0.32861627  1
  C  C386  1  0.30073911  0.98733885  0.31736363  1
  C  C387  1  0.31069469  0.01258541  0.32737014  1
  C  C388  1  0.31426042  0.03861142  0.31585348  1
  C  C389  1  0.30808982  0.03904367  0.29455269  1
  C  C390  1  0.29965817  0.01298922  0.28480415  1
  C  C391  1  0.29563309  0.98680962  0.29596882  1
  C  C392  1  0.28691731  0.95835400  0.28633677  1
  C  C393  1  0.31573199  0.01192847  0.35014615  1
  C  C394  1  0.31160000  0.06760156  0.28326538  1
  C  C395  1  0.32375604  0.06647957  0.32585435  1
  C  C396  1  0.36278412  0.09929872  0.32761501  1
  C  C397  1  0.34701385  0.11805160  0.33973187  1
  C  C398  1  0.35784828  0.14476618  0.34604769  1
  C  C399  1  0.38519774  0.15370006  0.34095421  1
  C  C400  1  0.40067677  0.13402278  0.32858776  1
  C  C401  1  0.38987153  0.10732911  0.32222258  1
  C  C402  1  0.39712420  0.18103123  0.34800967  1
  C  C403  1  0.38435462  0.20136571  0.36061597  1
  C  C404  1  0.29347921  0.01382933  0.26228910  1
  C  C405  1  0.25447704  0.02034911  0.23985485  1
  C  C406  1  0.27199465  0.01286707  0.22375328  1
  C  C407  1  0.26047823  0.00674188  0.20465935  1
  C  C408  1  0.23116126  0.00911900  0.20063179  1
  C  C409  1  0.21407178  0.01708633  0.21737009  1
  C  C410  1  0.22560652  0.02286530  0.23661144  1
  C  C411  1  0.21960607  0.00430352  0.18037498  1
  C  C412  1  0.19125436  0.00626415  0.17548182  1
  C  C413  1  0.63804957  0.48904960  0.53948924  1
  C  C414  1  0.65964422  0.48324065  0.54967235  1
  C  C415  1  0.68361835  0.47715214  0.56260979  1
  C  C416  1  0.68160835  0.47439031  0.58414338  1
  C  C417  1  0.70457513  0.46728203  0.59684911  1
  C  C418  1  0.73179754  0.46313130  0.58906357  1
  C  C419  1  0.73409411  0.46816523  0.56771876  1
  C  C420  1  0.71100183  0.47514344  0.55510483  1
  C  C421  1  0.75656444  0.45435418  0.60218728  1
  C  C422  1  0.78354981  0.45046551  0.59399975  1
  C  C423  1  0.80660037  0.44166609  0.60602335  1
  C  C424  1  0.80497620  0.43557331  0.62729129  1
  C  C425  1  0.77814230  0.44036511  0.63560366  1
  C  C426  1  0.75495677  0.44922763  0.62357073  1
  C  C427  1  0.82918603  0.42587878  0.63882317  1
  C  C428  1  0.85107434  0.41773264  0.64771727  1
  C  C429  1  0.56876471  0.47475179  0.45597971  1
  C  C430  1  0.57991238  0.45402120  0.44756888  1
  C  C431  1  0.58963646  0.42791123  0.43913685  1
  C  C432  1  0.57148715  0.40396161  0.43591572  1
  C  C433  1  0.58136615  0.37985017  0.42594861  1
  C  C434  1  0.60971683  0.37900080  0.41997169  1
  C  C435  1  0.62836090  0.40168871  0.42537957  1
  C  C436  1  0.61828869  0.42572142  0.43531371  1
  C  C437  1  0.62055623  0.35465755  0.40834872  1
  C  C438  1  0.64899355  0.35521605  0.40273384  1
  C  C439  1  0.65981177  0.33265660  0.39166773  1
  C  C440  1  0.64243838  0.30915967  0.38580836  1
  C  C441  1  0.61407702  0.30857105  0.39143760  1
  C  C442  1  0.60314047  0.33112254  0.40253783  1
  C  C443  1  0.65387324  0.28613346  0.37474121  1
  C  C444  1  0.66516206  0.26609812  0.36565670  1
  C  C445  1  0.43412175  0.58588798  0.53970628  1
  C  C446  1  0.41280708  0.59255521  0.54926231  1
  C  C447  1  0.38900556  0.59994307  0.56129556  1
  C  C448  1  0.39215150  0.61122692  0.58127931  1
  C  C449  1  0.36946075  0.61957133  0.59309698  1
  C  C450  1  0.34134834  0.61656049  0.58612689  1
  C  C451  1  0.33820413  0.60309442  0.56677205  1
  C  C452  1  0.36103028  0.59486940  0.55500875  1
  C  C453  1  0.31676511  0.62651695  0.59822347  1
  C  C454  1  0.28877474  0.62327121  0.59110615  1
  C  C455  1  0.26587449  0.63312180  0.60211746  1
  C  C456  1  0.26854495  0.64752118  0.62115880  1
  C  C457  1  0.29653175  0.64984800  0.62860553  1
  C  C458  1  0.31954597  0.63996510  0.61760303  1
  C  C459  1  0.24442943  0.65802535  0.63165859  1
  C  C460  1  0.22282935  0.66637964  0.64007871  1
  C  C461  1  0.57593132  0.63473203  0.47830106  1
  C  C462  1  0.58424084  0.65603042  0.46848361  1
  C  C463  1  0.59300362  0.68001606  0.45606229  1
  C  C464  1  0.57496681  0.70338787  0.44979287  1
  C  C465  1  0.58406133  0.72664797  0.43773730  1
  C  C466  1  0.61183020  0.72802902  0.43059669  1
  C  C467  1  0.62941540  0.70385606  0.43614631  1
  C  C468  1  0.62023762  0.68079953  0.44827632  1
  C  C469  1  0.62209448  0.75304350  0.41804850  1
  C  C470  1  0.64989833  0.75394792  0.41101580  1
  C  C471  1  0.65985285  0.77747303  0.39968336  1
  C  C472  1  0.64311851  0.80243741  0.39451091  1
  C  C473  1  0.61497538  0.80098041  0.40091969  1
  C  C474  1  0.60494584  0.77744734  0.41227456  1
  C  C475  1  0.65396646  0.82679181  0.38349137  1
  C  C476  1  0.66349035  0.84788716  0.37400370  1
  C  C477  1  0.48241638  0.43489059  0.47807194  1
  C  C478  1  0.47391367  0.41427769  0.46759728  1
  C  C479  1  0.46480991  0.39103435  0.45467341  1
  C  C480  1  0.44463108  0.37091215  0.46112716  1
  C  C481  1  0.43501582  0.34836556  0.44874544  1
  C  C482  1  0.44502966  0.34390427  0.42874893  1
  C  C483  1  0.46568429  0.36384725  0.42230830  1
  C  C484  1  0.47513513  0.38644616  0.43476061  1
  C  C485  1  0.43447609  0.31967890  0.41564428  1
  C  C486  1  0.44417263  0.31484809  0.39559842  1
  C  C487  1  0.43458582  0.29187189  0.38357122  1
  C  C488  1  0.41479444  0.27143766  0.39059217  1
  C  C489  1  0.40425774  0.27708072  0.41031501  1
  C  C490  1  0.41377730  0.30000459  0.42235937  1
  C  C491  1  0.40584274  0.24705839  0.37879463  1
  C  C492  1  0.39775130  0.22541755  0.36927200  1
  C  C493  1  0.47024156  0.49561735  0.56565951  1
  C  C494  1  0.44935628  0.48776268  0.57440737  1
  C  C495  1  0.42352412  0.48156611  0.58271989  1
  C  C496  1  0.41875122  0.45172838  0.58638901  1
  C  C497  1  0.39504101  0.44376413  0.59612441  1
  C  C498  1  0.37524424  0.46583530  0.60110402  1
  C  C499  1  0.37838207  0.49543880  0.59480118  1
  C  C500  1  0.40242948  0.50334938  0.58531070  1
  C  C501  1  0.35156930  0.45671241  0.61282146  1
  C  C502  1  0.33038961  0.47694986  0.61843068  1
  C  C503  1  0.30868147  0.46724534  0.62990101  1
  C  C504  1  0.30840230  0.43743924  0.63614848  1
  C  C505  1  0.32911005  0.41717595  0.63011292  1
  C  C506  1  0.35076705  0.42673655  0.61869023  1
  C  C507  1  0.28701954  0.42618735  0.64786810  1
  C  C508  1  0.26654403  0.41785537  0.65700721  1
  C  C509  1  0.49030734  0.59102922  0.45623934  1
  C  C510  1  0.47883196  0.61015975  0.44574417  1
  C  C511  1  0.46890495  0.63575767  0.43588046  1
  C  C512  1  0.48769757  0.65521995  0.42648692  1
  C  C513  1  0.47698497  0.67953672  0.41646579  1
  C  C514  1  0.44769931  0.68507155  0.41685545  1
  C  C515  1  0.43018653  0.66833523  0.42961409  1
  C  C516  1  0.44117948  0.64422917  0.43964839  1
  C  C517  1  0.43473822  0.70827035  0.40446907  1
  C  C518  1  0.40535700  0.71240935  0.40519132  1
  C  C519  1  0.39268365  0.73375593  0.39322254  1
  C  C520  1  0.40888713  0.75105010  0.38000460  1
  C  C521  1  0.43830533  0.74724662  0.37953661  1
  C  C522  1  0.45109298  0.72592938  0.39148784  1
  C  C523  1  0.39576059  0.77309443  0.36814191  1
  C  C524  1  0.38511656  0.79407299  0.35894913  1
  C  C525  1  0.59808121  0.57977499  0.56099550  1
  C  C526  1  0.61798946  0.59057143  0.57006729  1
  C  C527  1  0.64309839  0.59822080  0.58001822  1
  C  C528  1  0.64271606  0.60016287  0.60145640  1
  C  C529  1  0.66633288  0.60873780  0.61189526  1
  C  C530  1  0.69123759  0.61343032  0.60096659  1
  C  C531  1  0.69266825  0.60587428  0.57998718  1
  C  C532  1  0.66877424  0.59766050  0.56966588  1
  C  C533  1  0.71533170  0.62554103  0.61172611  1
  C  C534  1  0.74091616  0.63047887  0.60172833  1
  C  C535  1  0.76298084  0.64234516  0.61237404  1
  C  C536  1  0.76022991  0.64994956  0.63324649  1
  C  C537  1  0.73470233  0.64499571  0.64312696  1
  C  C538  1  0.71255156  0.63316851  0.63252983  1
  C  C539  1  0.78292508  0.66185827  0.64398874  1
  C  C540  1  0.80409036  0.67085668  0.65258844  1
  C  C541  1  0.93763092  0.04350753  0.09124625  1
  C  C542  1  0.90603702  0.04832379  0.12193563  1
  C  C543  1  0.95560721  0.04080143  0.07413897  1
  C  C544  1  0.97149561  0.03875810  0.05945263  1
  C  C545  1  0.88725660  0.05092439  0.13856712  1
  C  C546  1  0.87084925  0.05280251  0.15284075  1
  C  C547  1  0.04191862  0.12732138  0.92012580  1
  C  C548  1  0.04809624  0.16642653  0.89200088  1
  C  C549  1  0.03883878  0.10536278  0.93579184  1
  C  C550  1  0.03615427  0.08591744  0.94897554  1
  C  C551  1  0.05175453  0.18791734  0.87614732  1
  C  C552  1  0.05523529  0.20521500  0.86174567  1
  C  C553  1  0.10979947  0.01684734  0.09460305  1
  C  C554  1  0.14408711  0.01071206  0.12399291  1
  C  C555  1  0.08991805  0.02074098  0.07822287  1
  C  C556  1  0.07231703  0.02429144  0.06424210  1
  C  C557  1  0.16350439  0.00794204  0.14071402  1
  C  C558  1  0.17949156  0.00635272  0.15574581  1
  C  C559  1  0.01387470  0.94496668  0.91953732  1
  C  C560  1  0.00961611  0.91302053  0.88826744  1
  C  C561  1  0.01709813  0.96384971  0.93667248  1
  C  C562  1  0.02007491  0.98081093  0.95119246  1
  C  C563  1  0.00799347  0.89459516  0.87079660  1
  C  C564  1  0.00739804  0.87793365  0.85604577  1
  N  N565  1  0.95047242  0.04590012  0.11002585  1
  N  N566  1  0.93426914  0.04870966  0.12576299  1
  N  N567  1  0.89330865  0.04561854  0.10309575  1
  N  N568  1  0.90942120  0.04312007  0.08740169  1
  N  N569  1  0.01829967  0.14029847  0.91183926  1
  N  N570  1  0.02140702  0.16017726  0.89759404  1
  N  N571  1  0.07174203  0.15330876  0.90022837  1
  N  N572  1  0.06856540  0.13335221  0.91437118  1
  N  N573  1  0.13743902  0.01585957  0.08964210  1
  N  N574  1  0.15526537  0.01265130  0.10491183  1
  N  N575  1  0.11637625  0.01100032  0.12888176  1
  N  N576  1  0.09859370  0.01425237  0.11362385  1
  N  N577  1  0.00514537  0.91692569  0.92277490  1
  N  N578  1  0.00293356  0.90046209  0.90666377  1
  N  N579  1  0.01755347  0.94134681  0.88500770  1
  N  N580  1  0.01977360  0.95775153  0.90116073  1
  O  O581  1  0.00241358  0.36319034  0.68889426  1
  O  O582  1  0.08159262  0.29488176  0.75896678  1
  O  O583  1  0.12140361  0.38393824  0.69680216  1
  O  O584  1  0.72927579  0.98932244  0.32030347  1
  O  O585  1  0.73457376  0.13383323  0.31330402  1
  O  O586  1  0.77293814  0.05010904  0.24919397  1
  O  O587  1  0.95271005  0.69455162  0.69882089  1
  O  O588  1  0.02620531  0.76552583  0.76538717  1
  O  O589  1  0.07456905  0.71228273  0.68674263  1
  O  O590  1  0.32973408  0.94752034  0.32736218  1
  O  O591  1  0.26521708  0.02541462  0.25889434  1
  O  O592  1  0.35266057  0.07329621  0.32068865  1
