# generated using pymatgen
data_H50C105N4O
_symmetry_space_group_name_H-M   'P 1'
_cell_length_a   48.91689678
_cell_length_b   49.15145066
_cell_length_c   28.20859785
_cell_angle_alpha   90.25626066
_cell_angle_beta   90.21323407
_cell_angle_gamma   99.10935533
_symmetry_Int_Tables_number   1
_chemical_formula_structural   H50C105N4O
_chemical_formula_sum   'H100 C210 N8 O2'
_cell_volume   66966.23069329
_cell_formula_units_Z   2
loop_
 _symmetry_equiv_pos_site_id
 _symmetry_equiv_pos_as_xyz
  1  'x, y, z'
loop_
 _atom_site_type_symbol
 _atom_site_label
 _atom_site_symmetry_multiplicity
 _atom_site_fract_x
 _atom_site_fract_y
 _atom_site_fract_z
 _atom_site_occupancy
  H  H0  1  0.05770221  0.39278254  0.00378714  1
  H  H1  1  0.95720231  0.38990155  0.00671445  1
  H  H2  1  0.39153085  0.05847872  0.00460292  1
  H  H3  1  0.39185390  0.95878590  0.00576933  1
  H  H4  1  0.44875837  0.57604919  0.50840903  1
  H  H5  1  0.48803653  0.61468992  0.50408471  1
  H  H6  1  0.61379448  0.48968707  0.50736648  1
  H  H7  1  0.57495812  0.45066363  0.51396869  1
  H  H8  1  0.25280366  0.50523365  0.58445583  1
  H  H9  1  0.29177984  0.51759548  0.57683416  1
  H  H10  1  0.34031769  0.52699849  0.57815399  1
  H  H11  1  0.24800171  0.51610192  0.43045929  1
  H  H12  1  0.28771740  0.52752723  0.43393427  1
  H  H13  1  0.33595718  0.53761026  0.42607526  1
  H  H14  1  0.17616834  0.48421234  0.51033534  1
  H  H15  1  0.51218750  0.25321918  0.58464517  1
  H  H16  1  0.52086043  0.29315837  0.57656986  1
  H  H17  1  0.53423486  0.34123537  0.57750865  1
  H  H18  1  0.49903048  0.25139767  0.43062276  1
  H  H19  1  0.50865867  0.29050820  0.43368853  1
  H  H20  1  0.52081170  0.33825247  0.42552567  1
  H  H21  1  0.49152884  0.17693837  0.51023289  1
  H  H22  1  0.79831120  0.50431007  0.42718148  1
  H  H23  1  0.76418188  0.51743863  0.43543734  1
  H  H24  1  0.71865488  0.52698148  0.43438325  1
  H  H25  1  0.80709129  0.51580112  0.58109434  1
  H  H26  1  0.77156075  0.52706418  0.57855520  1
  H  H27  1  0.72664042  0.53736807  0.58695475  1
  H  H28  1  0.87080654  0.48904506  0.49853479  1
  H  H29  1  0.51120885  0.80353001  0.42655028  1
  H  H30  1  0.52056285  0.76683381  0.43549581  1
  H  H31  1  0.53419660  0.72306438  0.43494940  1
  H  H32  1  0.50052994  0.80139027  0.58040931  1
  H  H33  1  0.50796492  0.76557078  0.57814470  1
  H  H34  1  0.52057546  0.72194235  0.58688742  1
  H  H35  1  0.48632957  0.87140217  0.49961181  1
  H  H36  1  0.06234911  0.38059370  0.81189013  1
  H  H37  1  0.08614428  0.45857695  0.88251821  1
  H  H38  1  0.05531476  0.44276219  0.94902454  1
  H  H39  1  0.03225995  0.36394178  0.87921892  1
  H  H40  1  0.17234015  0.50887127  0.69843830  1
  H  H41  1  0.20466298  0.52583524  0.63392113  1
  H  H42  1  0.18181671  0.44892011  0.55933410  1
  H  H43  1  0.15014607  0.43126241  0.62470036  1
  H  H44  1  0.46101254  0.07934487  0.87329970  1
  H  H45  1  0.37733630  0.07143945  0.82112286  1
  H  H46  1  0.36120178  0.04035343  0.88705666  1
  H  H47  1  0.44515122  0.04852299  0.93987847  1
  H  H48  1  0.42840622  0.15978114  0.63231988  1
  H  H49  1  0.44673508  0.19116807  0.56752552  1
  H  H50  1  0.52880124  0.19831273  0.62727607  1
  H  H51  1  0.51074133  0.16632697  0.69113211  1
  H  H52  1  0.96094328  0.38723577  0.20663701  1
  H  H53  1  0.93768950  0.45128165  0.11897572  1
  H  H54  1  0.96296083  0.43489467  0.05185363  1
  H  H55  1  0.98734190  0.37145620  0.14052711  1
  H  H56  1  0.86813851  0.50223161  0.30391505  1
  H  H57  1  0.84186164  0.51922335  0.36954770  1
  H  H58  1  0.86045713  0.45288572  0.45763319  1
  H  H59  1  0.88914598  0.43769081  0.39383205  1
  H  H60  1  0.39761037  0.91266296  0.13159544  1
  H  H61  1  0.43849928  0.98749267  0.19664417  1
  H  H62  1  0.41911919  0.01391056  0.13768828  1
  H  H63  1  0.38066998  0.93918157  0.06796310  1
  H  H64  1  0.48856899  0.91777150  0.38037967  1
  H  H65  1  0.50961719  0.89227523  0.44240628  1
  H  H66  1  0.46661895  0.81541686  0.38570509  1
  H  H67  1  0.44748139  0.84078116  0.32136124  1
  H  H68  1  0.46055194  0.06607736  0.15678336  1
  H  H69  1  0.37784487  0.08434682  0.17193847  1
  H  H70  1  0.36212219  0.05328178  0.10527044  1
  H  H71  1  0.44592575  0.03893146  0.08438174  1
  H  H72  1  0.42869185  0.17464384  0.35986110  1
  H  H73  1  0.44634194  0.20624721  0.42557645  1
  H  H74  1  0.52727942  0.18330893  0.41009349  1
  H  H75  1  0.51004439  0.15251161  0.34333247  1
  H  H76  1  0.07142337  0.37809854  0.18847133  1
  H  H77  1  0.07577423  0.46165233  0.14074216  1
  H  H78  1  0.04479823  0.44540310  0.07361371  1
  H  H79  1  0.04077368  0.36165888  0.12142618  1
  H  H80  1  0.16400514  0.51181410  0.32534263  1
  H  H81  1  0.19583280  0.52938685  0.39072959  1
  H  H82  1  0.19111116  0.44689709  0.44447481  1
  H  H83  1  0.16024134  0.42896036  0.37779179  1
  H  H84  1  0.98187126  0.41333846  0.79816859  1
  H  H85  1  0.91610771  0.42610103  0.89227939  1
  H  H86  1  0.94103150  0.41061507  0.95917598  1
  H  H87  1  0.00587727  0.39519562  0.86328019  1
  H  H88  1  0.84427321  0.47665463  0.70711461  1
  H  H89  1  0.81957060  0.49347390  0.63993854  1
  H  H90  1  0.88869667  0.48318323  0.54853620  1
  H  H91  1  0.91108325  0.46386562  0.61451341  1
  H  H92  1  0.41323697  0.91385964  0.88716341  1
  H  H93  1  0.42462502  0.98740129  0.80299371  1
  H  H94  1  0.40628552  0.01222893  0.86602509  1
  H  H95  1  0.39468910  0.93816993  0.95141535  1
  H  H96  1  0.47437844  0.91625663  0.61900516  1
  H  H97  1  0.49523055  0.89269002  0.55511205  1
  H  H98  1  0.48126398  0.81685053  0.63591712  1
  H  H99  1  0.46489470  0.84201773  0.70236977  1
  C  C100  1  0.02271821  0.39574437  0.04865549  1
  C  C101  1  0.99398953  0.39659049  0.04854805  1
  C  C102  1  0.97966806  0.39487482  0.00503252  1
  C  C103  1  0.99321401  0.39787332  0.96085188  1
  C  C104  1  0.02209405  0.39651112  0.96098102  1
  C  C105  1  0.03578937  0.39453972  0.00452963  1
  C  C106  1  0.39580568  0.02341411  0.96097151  1
  C  C107  1  0.39713580  0.99471647  0.96094668  1
  C  C108  1  0.39384143  0.98109744  0.00511065  1
  C  C109  1  0.39681107  0.99508536  0.04917605  1
  C  C110  1  0.39645820  0.02398551  0.04849094  1
  C  C111  1  0.39346091  0.03670332  0.00464043  1
  C  C112  1  0.52490683  0.56026093  0.50320769  1
  C  C113  1  0.49156771  0.59335664  0.50510137  1
  C  C114  1  0.51915955  0.58791183  0.50348850  1
  C  C115  1  0.55402475  0.55523757  0.49711715  1
  C  C116  1  0.55903663  0.52627625  0.50356398  1
  C  C117  1  0.58680842  0.52054677  0.50402670  1
  C  C118  1  0.54325546  0.47675667  0.50961709  1
  C  C119  1  0.53699141  0.50428028  0.50844594  1
  C  C120  1  0.50769571  0.50919020  0.51259445  1
  C  C121  1  0.50277380  0.53832556  0.50791808  1
  C  C122  1  0.57109100  0.47181228  0.51062226  1
  C  C123  1  0.59233500  0.49315612  0.50760940  1
  C  C124  1  0.47509467  0.54451436  0.50842884  1
  C  C125  1  0.47008389  0.57219143  0.50723339  1
  C  C126  1  0.34326930  0.53017157  0.50116666  1
  C  C127  1  0.21327822  0.49593373  0.55139734  1
  C  C128  1  0.24180138  0.50524777  0.55072226  1
  C  C129  1  0.32939566  0.52664014  0.54429433  1
  C  C130  1  0.21141974  0.49788051  0.46600909  1
  C  C131  1  0.23932165  0.50973869  0.46498331  1
  C  C132  1  0.32713594  0.53230065  0.46092367  1
  C  C133  1  0.19843418  0.49117623  0.50916147  1
  C  C134  1  0.25561249  0.51212687  0.50709389  1
  C  C135  1  0.28534069  0.52019075  0.50534416  1
  C  C136  1  0.52604937  0.34505501  0.50190630  1
  C  C137  1  0.49772926  0.21445544  0.55144620  1
  C  C138  1  0.50642185  0.24297273  0.55083354  1
  C  C139  1  0.52793697  0.33078486  0.54408366  1
  C  C140  1  0.49589397  0.21317719  0.46628770  1
  C  C141  1  0.50045764  0.24192918  0.46525202  1
  C  C142  1  0.52061303  0.32924481  0.46084708  1
  C  C143  1  0.49496479  0.19939162  0.50925945  1
  C  C144  1  0.50740084  0.25759019  0.50726276  1
  C  C145  1  0.51426348  0.28730002  0.50534530  1
  C  C146  1  0.71706790  0.53059638  0.51149348  1
  C  C147  1  0.83499965  0.49535219  0.46013640  1
  C  C148  1  0.80938893  0.50441378  0.46083263  1
  C  C149  1  0.72948037  0.52658701  0.46819526  1
  C  C150  1  0.83784302  0.49700228  0.54578475  1
  C  C151  1  0.81316589  0.50815129  0.54700360  1
  C  C152  1  0.73370190  0.53215864  0.55191692  1
  C  C153  1  0.84956172  0.49259826  0.50192728  1
  C  C154  1  0.79807807  0.51129675  0.50485062  1
  C  C155  1  0.77117713  0.51970373  0.50699919  1
  C  C156  1  0.52641452  0.71694297  0.51064387  1
  C  C157  1  0.49860155  0.83844602  0.46010559  1
  C  C158  1  0.50554942  0.81185739  0.46041174  1
  C  C159  1  0.52778352  0.73149599  0.46819863  1
  C  C160  1  0.49473929  0.83840340  0.54545567  1
  C  C161  1  0.50049617  0.81137043  0.54603829  1
  C  C162  1  0.52038378  0.73078856  0.55148992  1
  C  C163  1  0.49440980  0.85212603  0.50223679  1
  C  C164  1  0.50680348  0.79781120  0.50403629  1
  C  C165  1  0.51373065  0.77036804  0.50650722  1
  C  C166  1  0.44932610  0.52716220  0.50818343  1
  C  C167  1  0.42395583  0.52785738  0.50576816  1
  C  C168  1  0.39698078  0.52956472  0.50272546  1
  C  C169  1  0.37216902  0.53116143  0.50003614  1
  C  C170  1  0.52592453  0.45111113  0.50855131  1
  C  C171  1  0.52644671  0.42583500  0.50646022  1
  C  C172  1  0.52748528  0.39884462  0.50391415  1
  C  C173  1  0.52830866  0.37397034  0.50183009  1
  C  C174  1  0.61219293  0.53861725  0.50356764  1
  C  C175  1  0.63761366  0.53839223  0.50633743  1
  C  C176  1  0.66456937  0.53673234  0.50988973  1
  C  C177  1  0.68913224  0.53421065  0.51253678  1
  C  C178  1  0.53730327  0.61322910  0.50402086  1
  C  C179  1  0.53682687  0.63850322  0.50642761  1
  C  C180  1  0.53466793  0.66524736  0.50933619  1
  C  C181  1  0.53120235  0.68946942  0.51131426  1
  C  C182  1  0.06104877  0.39390044  0.84265933  1
  C  C183  1  0.07661284  0.42082014  0.84186939  1
  C  C184  1  0.07416316  0.43786443  0.88199088  1
  C  C185  1  0.05702613  0.42887649  0.91935309  1
  C  C186  1  0.04071585  0.40256752  0.91869650  1
  C  C187  1  0.04391503  0.38475754  0.88040957  1
  C  C188  1  0.09385498  0.43045046  0.80386878  1
  C  C189  1  0.10927807  0.43951515  0.77145279  1
  C  C190  1  0.12607956  0.44940206  0.73621806  1
  C  C191  1  0.14151987  0.45848243  0.70385273  1
  C  C192  1  0.15944722  0.46853271  0.66710536  1
  C  C193  1  0.17515852  0.49550840  0.66849512  1
  C  C194  1  0.19358235  0.50478721  0.63298630  1
  C  C195  1  0.19660242  0.48756269  0.59413993  1
  C  C196  1  0.17981511  0.46161239  0.59048231  1
  C  C197  1  0.16229085  0.45186157  0.62669249  1
  C  C198  1  0.43909537  0.07091524  0.87681057  1
  C  C199  1  0.42041809  0.07797412  0.84187812  1
  C  C200  1  0.39209273  0.06642523  0.84758235  1
  C  C201  1  0.38308561  0.04914394  0.88507145  1
  C  C202  1  0.40210865  0.04217783  0.91887305  1
  C  C203  1  0.43016560  0.05395347  0.91433837  1
  C  C204  1  0.42994643  0.09538161  0.80402903  1
  C  C205  1  0.43892849  0.11081856  0.77159819  1
  C  C206  1  0.44873147  0.12762821  0.73633234  1
  C  C207  1  0.45774038  0.14307073  0.70394894  1
  C  C208  1  0.46808474  0.16100425  0.66736704  1
  C  C209  1  0.45034650  0.16842383  0.63127788  1
  C  C210  1  0.46054504  0.18587451  0.59520763  1
  C  C211  1  0.48869741  0.19769070  0.59429203  1
  C  C212  1  0.50670370  0.19053441  0.62916891  1
  C  C213  1  0.49663745  0.17239806  0.66461842  1
  C  C214  1  0.96197720  0.39788091  0.17265568  1
  C  C215  1  0.94765887  0.42071134  0.16826072  1
  C  C216  1  0.94844778  0.43362631  0.12326183  1
  C  C217  1  0.96250558  0.42437929  0.08581833  1
  C  C218  1  0.97797210  0.40264795  0.09127472  1
  C  C219  1  0.97712573  0.38937251  0.13557173  1
  C  C220  1  0.93325169  0.43028671  0.20612406  1
  C  C221  1  0.92074232  0.43933216  0.23871959  1
  C  C222  1  0.90712878  0.44920077  0.27414166  1
  C  C223  1  0.89461965  0.45827240  0.30668956  1
  C  C224  1  0.87990778  0.46827958  0.34361329  1
  C  C225  1  0.86623371  0.49152298  0.33779227  1
  C  C226  1  0.85093897  0.50053540  0.37397273  1
  C  C227  1  0.84875720  0.48664010  0.41753492  1
  C  C228  1  0.86300793  0.46415920  0.42444232  1
  C  C229  1  0.87824492  0.45516555  0.38849506  1
  C  C230  1  0.40337395  0.93504039  0.13107712  1
  C  C231  1  0.41987342  0.94772757  0.16891961  1
  C  C232  1  0.42579160  0.97685273  0.16818468  1
  C  C233  1  0.41581511  0.99181383  0.13286994  1
  C  C234  1  0.40204574  0.97920785  0.09214869  1
  C  C235  1  0.39480663  0.95017204  0.09402305  1
  C  C236  1  0.42956743  0.93311683  0.20629412  1
  C  C237  1  0.43838291  0.92094675  0.23944927  1
  C  C238  1  0.44798463  0.90769973  0.27552231  1
  C  C239  1  0.45681458  0.89550223  0.30863653  1
  C  C240  1  0.46735447  0.88106475  0.34527871  1
  C  C241  1  0.48447195  0.89530402  0.38113070  1
  C  C242  1  0.49569281  0.88111019  0.41625104  1
  C  C243  1  0.49042931  0.85211919  0.41716201  1
  C  C244  1  0.47271195  0.83764771  0.38283730  1
  C  C245  1  0.46143114  0.85181657  0.34774005  1
  C  C246  1  0.43932842  0.06455070  0.14367805  1
  C  C247  1  0.42060377  0.07828922  0.16936753  1
  C  C248  1  0.39266681  0.07376598  0.15333551  1
  C  C249  1  0.38398079  0.05651915  0.11509170  1
  C  C250  1  0.40294835  0.04309824  0.09040846  1
  C  C251  1  0.43110430  0.04918991  0.10352214  1
  C  C252  1  0.42994827  0.09540718  0.20812176  1
  C  C253  1  0.43896792  0.11083802  0.24090829  1
  C  C254  1  0.44883107  0.12766283  0.27653829  1
  C  C255  1  0.45788787  0.14312519  0.30923416  1
  C  C256  1  0.46797647  0.16101397  0.34646655  1
  C  C257  1  0.45036842  0.17686598  0.37055882  1
  C  C258  1  0.46013425  0.19439619  0.40721461  1
  C  C259  1  0.48773419  0.19635009  0.42253726  1
  C  C260  1  0.50565776  0.18125740  0.39913774  1
  C  C261  1  0.49606874  0.16422074  0.36155273  1
  C  C262  1  0.06543833  0.39285343  0.16319267  1
  C  C263  1  0.07612015  0.42117764  0.17017512  1
  C  C264  1  0.06797410  0.43973220  0.13636428  1
  C  C265  1  0.05078858  0.43063170  0.09873381  1
  C  C266  1  0.04043215  0.40245412  0.09238318  1
  C  C267  1  0.04811634  0.38367342  0.12532397  1
  C  C268  1  0.09379564  0.43082033  0.20815267  1
  C  C269  1  0.10931494  0.43987184  0.24085593  1
  C  C270  1  0.12621505  0.44975144  0.27644234  1
  C  C271  1  0.14173410  0.45882798  0.30911482  1
  C  C272  1  0.15956683  0.46903345  0.34642335  1
  C  C273  1  0.17025213  0.49757249  0.35124340  1
  C  C274  1  0.18806388  0.50741201  0.38777508  1
  C  C275  1  0.19484003  0.48927184  0.42251059  1
  C  C276  1  0.18465976  0.46094321  0.41843946  1
  C  C277  1  0.16780639  0.45097899  0.38103155  1
  C  C278  1  0.97312534  0.41267149  0.83380563  1
  C  C279  1  0.94728918  0.42160918  0.84027557  1
  C  C280  1  0.93623540  0.41971608  0.88673024  1
  C  C281  1  0.95055619  0.41092074  0.92440330  1
  C  C282  1  0.97727235  0.40378712  0.91851928  1
  C  C283  1  0.98720462  0.40349212  0.87133512  1
  C  C284  1  0.93311694  0.43150552  0.80260923  1
  C  C285  1  0.92032587  0.44039338  0.77030993  1
  C  C286  1  0.90639028  0.45006036  0.73521823  1
  C  C287  1  0.89357975  0.45894604  0.70296536  1
  C  C288  1  0.87940833  0.46908911  0.66564773  1
  C  C289  1  0.85349096  0.47807287  0.67188367  1
  C  C290  1  0.83988368  0.48772029  0.63416579  1
  C  C291  1  0.85175354  0.48900618  0.58840740  1
  C  C292  1  0.87796564  0.48093253  0.58229885  1
  C  C293  1  0.89119126  0.47081782  0.61970680  1
  C  C294  1  0.41217624  0.93577977  0.88365688  1
  C  C295  1  0.42093070  0.94869864  0.84033722  1
  C  C296  1  0.41849525  0.97690544  0.83623866  1
  C  C297  1  0.40907496  0.99120282  0.87323783  1
  C  C298  1  0.40280644  0.97892636  0.91826134  1
  C  C299  1  0.40285171  0.95015305  0.92084846  1
  C  C300  1  0.43087151  0.93419641  0.80311519  1
  C  C301  1  0.43967153  0.92150361  0.77058557  1
  C  C302  1  0.44923371  0.90769690  0.73520992  1
  C  C303  1  0.45802404  0.89500726  0.70268441  1
  C  C304  1  0.46802326  0.88080013  0.66522882  1
  C  C305  1  0.47616265  0.89449576  0.62219072  1
  C  C306  1  0.48624700  0.88078507  0.58522105  1
  C  C307  1  0.48707112  0.85228501  0.58828588  1
  C  C308  1  0.48016338  0.83864085  0.63171779  1
  C  C309  1  0.47084512  0.85261606  0.66919095  1
  N  N310  1  0.30138624  0.52155885  0.54519537  1
  N  N311  1  0.29911918  0.52706689  0.46401991  1
  N  N312  1  0.52131351  0.30295347  0.54488926  1
  N  N313  1  0.51436742  0.30142131  0.46376191  1
  N  N314  1  0.75574868  0.52127474  0.46714230  1
  N  N315  1  0.75989503  0.52663309  0.54860488  1
  N  N316  1  0.52085641  0.75707044  0.46711358  1
  N  N317  1  0.51378133  0.75645901  0.54823811  1
  O  O318  1  0.57274075  0.57381996  0.48566824  1
  O  O319  1  0.48868547  0.49030187  0.52120948  1
