# generated using pymatgen
data_Mg2CoH214C300S2(NO7)4
_symmetry_space_group_name_H-M   'P 1'
_cell_length_a   72.62606094
_cell_length_b   73.16233182
_cell_length_c   34.26497476
_cell_angle_alpha   89.68459407
_cell_angle_beta   90.19308330
_cell_angle_gamma   90.48549985
_symmetry_Int_Tables_number   1
_chemical_formula_structural   Mg2CoH214C300S2(NO7)4
_chemical_formula_sum   'Mg2 Co1 H214 C300 S2 N4 O28'
_cell_volume   182056.36794940
_cell_formula_units_Z   1
loop_
 _symmetry_equiv_pos_site_id
 _symmetry_equiv_pos_as_xyz
  1  'x, y, z'
loop_
 _atom_site_type_symbol
 _atom_site_label
 _atom_site_symmetry_multiplicity
 _atom_site_fract_x
 _atom_site_fract_y
 _atom_site_fract_z
 _atom_site_occupancy
  Mg  Mg0  1  0.01040594  0.51347468  0.00072140  1
  Mg  Mg1  1  0.51455398  0.01920137  0.00105961  1
  Co  Co2  1  0.50963850  0.51816665  0.49850258  1
  H  H3  1  0.52005111  0.49305945  0.55930594  1
  H  H4  1  0.52718572  0.45975117  0.56312832  1
  H  H5  1  0.52933783  0.45949676  0.43691957  1
  H  H6  1  0.51799193  0.49145183  0.43751373  1
  H  H7  1  0.53785238  0.51928358  0.44043618  1
  H  H8  1  0.57116191  0.52808552  0.43806219  1
  H  H9  1  0.57105562  0.52901677  0.56384638  1
  H  H10  1  0.53746137  0.52209582  0.56186772  1
  H  H11  1  0.51740142  0.54805817  0.55077866  1
  H  H12  1  0.50875813  0.58073749  0.55490986  1
  H  H13  1  0.47755222  0.57410973  0.44815385  1
  H  H14  1  0.48434417  0.54095348  0.45207075  1
  H  H15  1  0.49479014  0.50614051  0.58883755  1
  H  H16  1  0.48606503  0.49588890  0.44745612  1
  H  H17  1  0.45341103  0.48553319  0.44877066  1
  H  H18  1  0.44710729  0.51629039  0.55539717  1
  H  H19  1  0.47885050  0.52848528  0.54589153  1
  H  H20  1  0.51386547  0.53715605  0.41359298  1
  H  H21  1  0.14312744  0.45169250  0.26746923  1
  H  H22  1  0.12972033  0.41152975  0.27621242  1
  H  H23  1  0.14562637  0.39461563  0.32846355  1
  H  H24  1  0.16715992  0.39353727  0.38379508  1
  H  H25  1  0.17857506  0.45114945  0.36974046  1
  H  H26  1  0.15691909  0.45269284  0.31499290  1
  H  H27  1  0.19355130  0.39544653  0.42016316  1
  H  H28  1  0.17324910  0.40269975  0.44406842  1
  H  H29  1  0.16364705  0.42967272  0.52654512  1
  H  H30  1  0.16329506  0.40804594  0.50434052  1
  H  H31  1  0.16354955  0.42809631  0.47512567  1
  H  H32  1  0.21871610  0.40377672  0.40661510  1
  H  H33  1  0.23109743  0.38974627  0.43963287  1
  H  H34  1  0.24016125  0.41117798  0.42441867  1
  H  H35  1  0.22501619  0.44371732  0.58382217  1
  H  H36  1  0.24166717  0.44811910  0.54716622  1
  H  H37  1  0.24171637  0.42724567  0.57328092  1
  H  H38  1  0.25568763  0.41699126  0.52309429  1
  H  H39  1  0.25428269  0.41138009  0.47271118  1
  H  H40  1  0.28069098  0.41366873  0.49265523  1
  H  H41  1  0.31334273  0.41976180  0.49875818  1
  H  H42  1  0.30376459  0.47764834  0.48150815  1
  H  H43  1  0.27012993  0.47126140  0.47633742  1
  H  H44  1  0.33498973  0.46730482  0.49284689  1
  H  H45  1  0.33976759  0.42565475  0.50708266  1
  H  H46  1  0.20040173  0.45145834  0.57326651  1
  H  H47  1  0.17819615  0.44426440  0.55841526  1
  H  H48  1  0.18005359  0.46016094  0.61052920  1
  H  H49  1  0.15645250  0.46788456  0.65873894  1
  H  H50  1  0.15569423  0.41172925  0.69933899  1
  H  H51  1  0.17831197  0.40383413  0.64835531  1
  H  H52  1  0.13898927  0.46121714  0.71305477  1
  H  H53  1  0.13206973  0.42067024  0.73483628  1
  H  H54  1  0.57657764  0.15457077  0.27154452  1
  H  H55  1  0.61633418  0.14051186  0.28157344  1
  H  H56  1  0.63364303  0.15748951  0.33277386  1
  H  H57  1  0.63461467  0.17916704  0.38710426  1
  H  H58  1  0.57659006  0.18932927  0.37264220  1
  H  H59  1  0.57505888  0.16743120  0.31919181  1
  H  H60  1  0.63245848  0.20561152  0.42300268  1
  H  H61  1  0.62528113  0.18528740  0.44729522  1
  H  H62  1  0.59806899  0.17505157  0.52989139  1
  H  H63  1  0.61988130  0.17516204  0.50772225  1
  H  H64  1  0.59971412  0.17508144  0.47848730  1
  H  H65  1  0.62419907  0.23054307  0.40950854  1
  H  H66  1  0.63819548  0.24304740  0.44253643  1
  H  H67  1  0.61661013  0.25163364  0.42715412  1
  H  H68  1  0.58401468  0.23551998  0.58697304  1
  H  H69  1  0.57960943  0.25214794  0.55033338  1
  H  H70  1  0.60064921  0.25238513  0.57630934  1
  H  H71  1  0.61100980  0.26659107  0.52605840  1
  H  H72  1  0.61664691  0.26553303  0.47566193  1
  H  H73  1  0.61448031  0.29180810  0.49574277  1
  H  H74  1  0.60846502  0.32416306  0.50113146  1
  H  H75  1  0.55017601  0.31393034  0.48350178  1
  H  H76  1  0.55648323  0.28064765  0.47886678  1
  H  H77  1  0.56064371  0.34505715  0.49419684  1
  H  H78  1  0.60255397  0.35044965  0.50873314  1
  H  H79  1  0.57620240  0.21086638  0.57666960  1
  H  H80  1  0.58360621  0.18905826  0.56184634  1
  H  H81  1  0.56752977  0.19007043  0.61381511  1
  H  H82  1  0.55997546  0.16581937  0.66107801  1
  H  H83  1  0.61643291  0.16641208  0.70217006  1
  H  H84  1  0.62413364  0.18979491  0.65222371  1
  H  H85  1  0.56696482  0.14682786  0.71167059  1
  H  H86  1  0.60552772  0.14864777  0.74999752  1
  H  H87  1  0.88325579  0.60318545  0.73844624  1
  H  H88  1  0.88877372  0.56260678  0.71622104  1
  H  H89  1  0.87266783  0.54980793  0.66664369  1
  H  H90  1  0.85019962  0.55073408  0.61300636  1
  H  H91  1  0.84280651  0.60858975  0.63135810  1
  H  H92  1  0.86480556  0.60762895  0.68674004  1
  H  H93  1  0.82549333  0.55361449  0.58031400  1
  H  H94  1  0.84592776  0.56063925  0.55599314  1
  H  H95  1  0.85646507  0.58705403  0.47312230  1
  H  H96  1  0.85604196  0.56548547  0.49605618  1
  H  H97  1  0.85645997  0.58558736  0.52458494  1
  H  H98  1  0.80079988  0.56143003  0.59339086  1
  H  H99  1  0.78839349  0.54731103  0.56061731  1
  H  H100  1  0.77936403  0.56856034  0.57566129  1
  H  H101  1  0.79541879  0.60170706  0.41558926  1
  H  H102  1  0.77853733  0.60597834  0.45175351  1
  H  H103  1  0.77852164  0.58506453  0.42625380  1
  H  H104  1  0.76406446  0.57459493  0.47667052  1
  H  H105  1  0.76536325  0.56922876  0.52733062  1
  H  H106  1  0.73883317  0.57066399  0.50668261  1
  H  H107  1  0.70589076  0.57620833  0.50060160  1
  H  H108  1  0.71515974  0.63400811  0.51951571  1
  H  H109  1  0.74878951  0.62840905  0.52368582  1
  H  H110  1  0.68244340  0.61987247  0.51865912  1
  H  H111  1  0.68142182  0.58776795  0.46235467  1
  H  H112  1  0.82059385  0.61052900  0.42746694  1
  H  H113  1  0.84241646  0.60230830  0.44182122  1
  H  H114  1  0.84288251  0.61826366  0.38746591  1
  H  H115  1  0.86714735  0.62371047  0.33876548  1
  H  H116  1  0.86424623  0.56617495  0.30732557  1
  H  H117  1  0.83972684  0.56151484  0.35501850  1
  H  H118  1  0.88833370  0.61160918  0.28621905  1
  H  H119  1  0.87697183  0.57201152  0.26500154  1
  H  H120  1  0.42443898  0.89168743  0.73462819  1
  H  H121  1  0.46365326  0.89881661  0.70306905  1
  H  H122  1  0.47761045  0.87965317  0.66305108  1
  H  H123  1  0.47686233  0.85746069  0.60969245  1
  H  H124  1  0.41866726  0.84860571  0.62851678  1
  H  H125  1  0.41945891  0.87037826  0.68377018  1
  H  H126  1  0.47418475  0.83301919  0.57723288  1
  H  H127  1  0.46703180  0.85321658  0.55278346  1
  H  H128  1  0.44078730  0.86333124  0.46947135  1
  H  H129  1  0.46246316  0.86327469  0.49255614  1
  H  H130  1  0.44213278  0.86322252  0.52093909  1
  H  H131  1  0.46645777  0.80829446  0.59053658  1
  H  H132  1  0.48066126  0.79627935  0.55779889  1
  H  H133  1  0.45925311  0.78694252  0.57306035  1
  H  H134  1  0.42617074  0.80246510  0.41261793  1
  H  H135  1  0.42189058  0.78560440  0.44908146  1
  H  H136  1  0.44299543  0.78604220  0.42362939  1
  H  H137  1  0.45328996  0.77188982  0.47445727  1
  H  H138  1  0.45849095  0.77324013  0.52518299  1
  H  H139  1  0.45777793  0.74742726  0.50529812  1
  H  H140  1  0.45303623  0.71493946  0.49463065  1
  H  H141  1  0.39470025  0.72092839  0.51676222  1
  H  H142  1  0.39917257  0.75458992  0.52001194  1
  H  H143  1  0.40836950  0.68935543  0.50414185  1
  H  H144  1  0.45019651  0.68987827  0.51805798  1
  H  H145  1  0.41752687  0.82733836  0.42361616  1
  H  H146  1  0.42545080  0.84915356  0.43831082  1
  H  H147  1  0.40951694  0.84948783  0.38414740  1
  H  H148  1  0.40345634  0.87310210  0.33451585  1
  H  H149  1  0.46132555  0.87334544  0.30405821  1
  H  H150  1  0.46668125  0.84826390  0.35095522  1
  H  H151  1  0.41560500  0.89491230  0.28185814  1
  H  H152  1  0.45240834  0.88047531  0.25051385  1
  H  H153  1  0.36715168  0.46616291  0.52543453  1
  H  H154  1  0.40834492  0.45690824  0.43767260  1
  H  H155  1  0.39345822  0.42738182  0.42144207  1
  H  H156  1  0.36493485  0.41765860  0.45562381  1
  H  H157  1  0.42577285  0.47069549  0.48160076  1
  H  H158  1  0.37382003  0.49437616  0.51387690  1
  H  H159  1  0.38985643  0.52281594  0.53342803  1
  H  H160  1  0.42354294  0.52599316  0.52330968  1
  H  H161  1  0.56128024  0.37678203  0.52569540  1
  H  H162  1  0.57180397  0.41840877  0.43897633  1
  H  H163  1  0.60189611  0.40445123  0.42470974  1
  H  H164  1  0.61121167  0.37603322  0.45897185  1
  H  H165  1  0.55786640  0.43524139  0.48170812  1
  H  H166  1  0.53274619  0.38354731  0.51297843  1
  H  H167  1  0.50416718  0.39947549  0.53120120  1
  H  H168  1  0.50259561  0.43337391  0.52608693  1
  H  H169  1  0.63888973  0.59183943  0.47865153  1
  H  H170  1  0.63159748  0.54542912  0.55518340  1
  H  H171  1  0.66449369  0.54741223  0.57431246  1
  H  H172  1  0.68333608  0.57395239  0.55277709  1
  H  H173  1  0.61194067  0.53816398  0.50913006  1
  H  H174  1  0.60938841  0.59703966  0.50244212  1
  H  H175  1  0.57564058  0.59517137  0.49193490  1
  H  H176  1  0.56006435  0.56477905  0.49041576  1
  H  H177  1  0.46207967  0.66019576  0.52624450  1
  H  H178  1  0.45057723  0.62125949  0.43545180  1
  H  H179  1  0.42168215  0.63743785  0.41996929  1
  H  H180  1  0.41415015  0.66627577  0.45356069  1
  H  H181  1  0.46442287  0.60280710  0.47812887  1
  H  H182  1  0.49015142  0.65347622  0.51355625  1
  H  H183  1  0.51817018  0.63679517  0.53286216  1
  H  H184  1  0.52007242  0.60339592  0.52175126  1
  H  H185  1  0.07377418  0.44574053  0.78946444  1
  H  H186  1  0.11990723  0.47313588  0.84361131  1
  H  H187  1  0.14081918  0.45877479  0.79695008  1
  H  H188  1  0.09485596  0.42992868  0.74532692  1
  H  H189  1  0.58559910  0.11620104  0.86622045  1
  H  H190  1  0.55135340  0.09583327  0.77288163  1
  H  H191  1  0.56623534  0.11720002  0.72726687  1
  H  H192  1  0.60062828  0.13759378  0.82045408  1
  H  H193  1  0.90272906  0.55180360  0.15848032  1
  H  H194  1  0.94490764  0.58675667  0.20689096  1
  H  H195  1  0.92245004  0.59974296  0.25237101  1
  H  H196  1  0.88002619  0.56571277  0.20229262  1
  H  H197  1  0.48697012  0.92837089  0.20509736  1
  H  H198  1  0.43231119  0.93671693  0.15972623  1
  H  H199  1  0.41989321  0.91458247  0.20717205  1
  H  H200  1  0.47449866  0.90632230  0.25293542  1
  H  H201  1  0.59681180  0.09699013  0.17774897  1
  H  H202  1  0.54211591  0.11744037  0.19584135  1
  H  H203  1  0.55438890  0.13962120  0.24274805  1
  H  H204  1  0.60914393  0.11891678  0.22512195  1
  H  H205  1  0.09931699  0.43536808  0.14658270  1
  H  H206  1  0.09190592  0.48208314  0.22058872  1
  H  H207  1  0.11341124  0.46881142  0.26843957  1
  H  H208  1  0.12013381  0.42173302  0.19506120  1
  H  H209  1  0.90247465  0.56434362  0.85987893  1
  H  H210  1  0.94751017  0.57295582  0.78008992  1
  H  H211  1  0.92645187  0.58745048  0.73322106  1
  H  H212  1  0.88145772  0.57930218  0.81359427  1
  H  H213  1  0.43179666  0.93771082  0.83658410  1
  H  H214  1  0.48662394  0.92561933  0.79683933  1
  H  H215  1  0.47408348  0.90091899  0.75651746  1
  H  H216  1  0.41890499  0.91614960  0.78867864  1
  C  C217  1  0.98768551  0.52290535  0.07575563  1
  C  C218  1  0.03260170  0.50437527  0.92505984  1
  C  C219  1  0.03224721  0.50498238  0.07321209  1
  C  C220  1  0.98848746  0.52170275  0.92852261  1
  C  C221  1  0.50119040  0.99790345  0.92572466  1
  C  C222  1  0.52769138  0.04086753  0.07619927  1
  C  C223  1  0.52817919  0.03857186  0.92892407  1
  C  C224  1  0.50044179  0.99945245  0.07222972  1
  C  C225  1  0.52050911  0.48456546  0.53289561  1
  C  C226  1  0.52490854  0.46618743  0.53469315  1
  C  C227  1  0.52760393  0.45645885  0.50009507  1
  C  C228  1  0.52640029  0.46605262  0.46472048  1
  C  C229  1  0.52028216  0.48397194  0.46473582  1
  C  C230  1  0.54556083  0.52264656  0.46703867  1
  C  C231  1  0.56400372  0.52773561  0.46606242  1
  C  C232  1  0.57276575  0.53313765  0.50074978  1
  C  C233  1  0.56392772  0.52831716  0.53573910  1
  C  C234  1  0.54530922  0.52391218  0.53497437  1
  C  C235  1  0.50907097  0.55444158  0.52808422  1
  C  C236  1  0.50481589  0.57284884  0.52924882  1
  C  C237  1  0.49399166  0.58073002  0.49968783  1
  C  C238  1  0.48617723  0.56895771  0.47187030  1
  C  C239  1  0.49045488  0.55048773  0.47290384  1
  C  C240  1  0.47691997  0.50005784  0.47084682  1
  C  C241  1  0.45862984  0.49438839  0.47190433  1
  C  C242  1  0.44699619  0.50123808  0.50091065  1
  C  C243  1  0.45478332  0.51275355  0.52923896  1
  C  C244  1  0.47293326  0.51841706  0.52598718  1
  C  C245  1  0.13391471  0.43995197  0.26273577  1
  C  C246  1  0.13697430  0.42421867  0.28317936  1
  C  C247  1  0.14963582  0.42354394  0.31604643  1
  C  C248  1  0.15279415  0.40711303  0.33712242  1
  C  C249  1  0.16479717  0.40648390  0.36872131  1
  C  C250  1  0.17404607  0.42241374  0.38029110  1
  C  C251  1  0.17128197  0.43883812  0.36027210  1
  C  C252  1  0.15911371  0.43948627  0.32898239  1
  C  C253  1  0.18732371  0.40689556  0.43596468  1
  C  C254  1  0.19871469  0.41292122  0.47011628  1
  C  C255  1  0.21807620  0.41275025  0.46697106  1
  C  C256  1  0.22863531  0.42037359  0.49745802  1
  C  C257  1  0.22026183  0.42918301  0.52930629  1
  C  C258  1  0.20089660  0.43015260  0.53032319  1
  C  C259  1  0.18987366  0.42170248  0.50152425  1
  C  C260  1  0.16917565  0.42195348  0.50204321  1
  C  C261  1  0.22740957  0.40401635  0.43281517  1
  C  C262  1  0.23260804  0.43750632  0.55984588  1
  C  C263  1  0.24914229  0.42070897  0.49507919  1
  C  C264  1  0.27332696  0.44226523  0.48596033  1
  C  C265  1  0.28553020  0.42779942  0.49136928  1
  C  C266  1  0.30419726  0.43133565  0.49459207  1
  C  C267  1  0.31120864  0.44942726  0.49246225  1
  C  C268  1  0.29856134  0.46372277  0.48500585  1
  C  C269  1  0.27981511  0.46021570  0.48178441  1
  C  C270  1  0.33071448  0.45303870  0.49617411  1
  C  C271  1  0.34357625  0.43969962  0.49949016  1
  C  C272  1  0.19223060  0.43944896  0.56419309  1
  C  C273  1  0.17973138  0.43127117  0.62529592  1
  C  C274  1  0.17418081  0.44943997  0.62896318  1
  C  C275  1  0.16140707  0.45388705  0.65704147  1
  C  C276  1  0.15440128  0.44063287  0.68340528  1
  C  C277  1  0.16074834  0.42239926  0.67971878  1
  C  C278  1  0.17346835  0.41783899  0.65120343  1
  C  C279  1  0.14157361  0.44653533  0.71303878  1
  C  C280  1  0.13179509  0.43554358  0.73758499  1
  C  C281  1  0.58782722  0.14500487  0.26735048  1
  C  C282  1  0.60362228  0.14762621  0.28841268  1
  C  C283  1  0.60442522  0.16056414  0.32050182  1
  C  C284  1  0.62097136  0.16426695  0.34129772  1
  C  C285  1  0.62156379  0.17643116  0.37230003  1
  C  C286  1  0.60550208  0.18538296  0.38355389  1
  C  C287  1  0.58901003  0.18223119  0.36357346  1
  C  C288  1  0.58839051  0.16990112  0.33292039  1
  C  C289  1  0.62094568  0.19914764  0.43888748  1
  C  C290  1  0.61477313  0.21030248  0.47290967  1
  C  C291  1  0.61500915  0.22954743  0.46978714  1
  C  C292  1  0.60739282  0.23982126  0.50033370  1
  C  C293  1  0.59860646  0.23124235  0.53236945  1
  C  C294  1  0.59768189  0.21199084  0.53359628  1
  C  C295  1  0.60606769  0.20128835  0.50461439  1
  C  C296  1  0.60586118  0.18073490  0.50533780  1
  C  C297  1  0.62385398  0.23909553  0.43564314  1
  C  C298  1  0.59027710  0.24325282  0.56295924  1
  C  C299  1  0.60719894  0.26021400  0.49802862  1
  C  C300  1  0.58567408  0.28413478  0.48878400  1
  C  C301  1  0.60027152  0.29643568  0.49417124  1
  C  C302  1  0.59678082  0.31493932  0.49696848  1
  C  C303  1  0.57860527  0.32170666  0.49444799  1
  C  C304  1  0.56418088  0.30895609  0.48716206  1
  C  C305  1  0.56764213  0.29038571  0.48430428  1
  C  C306  1  0.57500261  0.34103979  0.49767719  1
  C  C307  1  0.58842689  0.35403214  0.50105426  1
  C  C308  1  0.58836841  0.20307160  0.56761630  1
  C  C309  1  0.59660253  0.19043839  0.62863721  1
  C  C310  1  0.57838596  0.18429676  0.63197636  1
  C  C311  1  0.57404815  0.17106566  0.65941957  1
  C  C312  1  0.58740459  0.16425318  0.68574234  1
  C  C313  1  0.60563477  0.17134603  0.68273743  1
  C  C314  1  0.61010416  0.18446870  0.65470130  1
  C  C315  1  0.58149371  0.15059063  0.71399452  1
  C  C316  1  0.59161323  0.14360786  0.74406882  1
  C  C317  1  0.88899619  0.58942899  0.73838946  1
  C  C318  1  0.88342544  0.57642546  0.71283729  1
  C  C319  1  0.87041875  0.57846398  0.68106315  1
  C  C320  1  0.86610304  0.56269667  0.65906206  1
  C  C321  1  0.85370541  0.56326464  0.62849643  1
  C  C322  1  0.84548894  0.57988602  0.61873322  1
  C  C323  1  0.84939681  0.59580064  0.63972109  1
  C  C324  1  0.86176822  0.59514365  0.67068281  1
  C  C325  1  0.83193844  0.56492098  0.56385490  1
  C  C326  1  0.82074397  0.57078576  0.52954846  1
  C  C327  1  0.80140594  0.57064037  0.53291916  1
  C  C328  1  0.79102030  0.57852358  0.50250966  1
  C  C329  1  0.79972208  0.58732687  0.47059831  1
  C  C330  1  0.81912094  0.58847801  0.46969880  1
  C  C331  1  0.82990608  0.57962326  0.49824365  1
  C  C332  1  0.85062774  0.57949595  0.49784603  1
  C  C333  1  0.79208738  0.56163248  0.56720662  1
  C  C334  1  0.78761206  0.59547465  0.43954368  1
  C  C335  1  0.77047499  0.57859805  0.50461765  1
  C  C336  1  0.74594125  0.59942532  0.51347133  1
  C  C337  1  0.73388116  0.58467402  0.50790099  1
  C  C338  1  0.71517752  0.58782880  0.50469621  1
  C  C339  1  0.70787291  0.60564032  0.50773796  1
  C  C340  1  0.72035700  0.62017183  0.51608909  1
  C  C341  1  0.73919313  0.61712917  0.51839268  1
  C  C342  1  0.68815464  0.60758289  0.50570566  1
  C  C343  1  0.67707926  0.59440709  0.48955418  1
  C  C344  1  0.82810733  0.59810148  0.43607916  1
  C  C345  1  0.84062590  0.58928257  0.37528875  1
  C  C346  1  0.84800271  0.60689103  0.37029562  1
  C  C347  1  0.86146953  0.60995201  0.34237300  1
  C  C348  1  0.86783782  0.59557075  0.31841187  1
  C  C349  1  0.85964087  0.57800698  0.32368715  1
  C  C350  1  0.84588862  0.57505986  0.35108504  1
  C  C351  1  0.88208076  0.59806913  0.28928095  1
  C  C352  1  0.88598725  0.58406324  0.26458821  1
  C  C353  1  0.43885025  0.89603825  0.73497847  1
  C  C354  1  0.45088536  0.89103925  0.70658293  1
  C  C355  1  0.44865225  0.87710854  0.67697276  1
  C  C356  1  0.46463929  0.87295219  0.65542207  1
  C  C357  1  0.46420717  0.86059363  0.62519231  1
  C  C358  1  0.44752604  0.85209102  0.61555511  1
  C  C359  1  0.43149044  0.85546082  0.63676370  1
  C  C360  1  0.43202579  0.86778196  0.66749790  1
  C  C361  1  0.46278495  0.83921326  0.56071106  1
  C  C362  1  0.45702898  0.82807156  0.52643518  1
  C  C363  1  0.45716521  0.80887820  0.53008653  1
  C  C364  1  0.44920342  0.79850094  0.49983937  1
  C  C365  1  0.44055171  0.80702335  0.46757347  1
  C  C366  1  0.43952519  0.82626855  0.46618419  1
  C  C367  1  0.44827423  0.83705594  0.49485079  1
  C  C368  1  0.44835757  0.85762572  0.49428661  1
  C  C369  1  0.46623676  0.79970267  0.56442851  1
  C  C370  1  0.43244433  0.79484322  0.43671650  1
  C  C371  1  0.44910922  0.77811496  0.50228075  1
  C  C372  1  0.42857561  0.75315558  0.51133233  1
  C  C373  1  0.44381541  0.74186693  0.50644421  1
  C  C374  1  0.44125813  0.72319020  0.50281474  1
  C  C375  1  0.42364548  0.71505450  0.50721368  1
  C  C376  1  0.40846438  0.72679207  0.51349637  1
  C  C377  1  0.41089586  0.74562928  0.51544565  1
  C  C378  1  0.42215859  0.69542250  0.50401002  1
  C  C379  1  0.43753085  0.68481112  0.50460023  1
  C  C380  1  0.42991102  0.83512650  0.43240491  1
  C  C381  1  0.43868410  0.84810265  0.37146377  1
  C  C382  1  0.42082650  0.85483181  0.36648586  1
  C  C383  1  0.41739226  0.86785741  0.33785971  1
  C  C384  1  0.43161225  0.87430529  0.31292220  1
  C  C385  1  0.44960415  0.86740104  0.31942918  1
  C  C386  1  0.45290614  0.85384113  0.34703001  1
  C  C387  1  0.42877893  0.88787716  0.28253772  1
  C  C388  1  0.44222964  0.89120331  0.25557867  1
  C  C389  1  0.37153118  0.43065016  0.46287342  1
  C  C390  1  0.42691593  0.49833232  0.50314003  1
  C  C391  1  0.41778769  0.48236650  0.49117056  1
  C  C392  1  0.39864295  0.48057037  0.49576796  1
  C  C393  1  0.38876308  0.49516286  0.51188073  1
  C  C394  1  0.39774136  0.51132014  0.52250835  1
  C  C395  1  0.41672708  0.51293498  0.51795122  1
  C  C396  1  0.36267941  0.44278556  0.48839038  1
  C  C397  1  0.37226883  0.45861473  0.50041733  1
  C  C398  1  0.38915720  0.46353894  0.48367660  1
  C  C399  1  0.39642813  0.45232019  0.45437274  1
  C  C400  1  0.38780928  0.43579902  0.44456744  1
  C  C401  1  0.59798201  0.38224451  0.46543388  1
  C  C402  1  0.52998786  0.43621989  0.50264244  1
  C  C403  1  0.54596175  0.42726406  0.49124638  1
  C  C404  1  0.54741112  0.40824279  0.49606483  1
  C  C405  1  0.53230224  0.39839839  0.51118932  1
  C  C406  1  0.51611767  0.40732096  0.52139944  1
  C  C407  1  0.51517067  0.42626936  0.51826139  1
  C  C408  1  0.58539082  0.37301305  0.49002180  1
  C  C409  1  0.56929228  0.38218857  0.50130969  1
  C  C410  1  0.56461077  0.39904242  0.48466901  1
  C  C411  1  0.57625847  0.40662817  0.45599069  1
  C  C412  1  0.59305560  0.39845975  0.44709681  1
  C  C413  1  0.66942131  0.57212161  0.54126321  1
  C  C414  1  0.58498117  0.54972643  0.50001704  1
  C  C415  1  0.60392284  0.55063933  0.50670744  1
  C  C416  1  0.61299307  0.56773280  0.50676870  1
  C  C417  1  0.60269398  0.58368934  0.50060004  1
  C  C418  1  0.58367312  0.58272804  0.49486645  1
  C  C419  1  0.57492319  0.56577929  0.49429628  1
  C  C420  1  0.66308654  0.58373888  0.51117259  1
  C  C421  1  0.64446531  0.58233366  0.50019124  1
  C  C422  1  0.63293614  0.56871973  0.51608645  1
  C  C423  1  0.64040233  0.55596895  0.54236467  1
  C  C424  1  0.65863086  0.55766699  0.55482677  1
  C  C425  1  0.42672298  0.65905385  0.46124417  1
  C  C426  1  0.49211829  0.60080038  0.50077385  1
  C  C427  1  0.47642316  0.61035446  0.48861488  1
  C  C428  1  0.47528367  0.62934056  0.49409713  1
  C  C429  1  0.49036386  0.63865719  0.51086970  1
  C  C430  1  0.50631516  0.62931893  0.52132878  1
  C  C431  1  0.50720970  0.61048891  0.51615065  1
  C  C432  1  0.43908320  0.66652044  0.48898968  1
  C  C433  1  0.45425552  0.65587682  0.50067852  1
  C  C434  1  0.45848561  0.63941704  0.48240145  1
  C  C435  1  0.44673371  0.63311424  0.45259142  1
  C  C436  1  0.43067655  0.64260337  0.44300099  1
  C  C437  1  0.08855797  0.44826963  0.79166091  1
  C  C438  1  0.09503203  0.46080337  0.82038902  1
  C  C439  1  0.11438972  0.46396069  0.82140285  1
  C  C440  1  0.12608915  0.45591345  0.79508427  1
  C  C441  1  0.04786092  0.49396143  0.90840181  1
  C  C442  1  0.10038972  0.43942069  0.76688452  1
  C  C443  1  0.08299955  0.46955680  0.84631471  1
  C  C444  1  0.07221976  0.47723259  0.86813131  1
  C  C445  1  0.05971006  0.48586216  0.89020764  1
  C  C446  1  0.11951030  0.44327023  0.76697265  1
  C  C447  1  0.58129989  0.11653774  0.83570650  1
  C  C448  1  0.56680324  0.10458505  0.82370898  1
  C  C449  1  0.56191048  0.10530223  0.78343987  1
  C  C450  1  0.57009024  0.11751513  0.75800024  1
  C  C451  1  0.53527501  0.05554881  0.91151308  1
  C  C452  1  0.58973032  0.12850818  0.81003427  1
  C  C453  1  0.55796521  0.09240647  0.84966947  1
  C  C454  1  0.55025142  0.08138839  0.87132981  1
  C  C455  1  0.54217375  0.06824149  0.89317091  1
  C  C456  1  0.58395753  0.12998593  0.77060089  1
  C  C457  1  0.90703569  0.56235639  0.17902682  1
  C  C458  1  0.92588164  0.56770183  0.17986465  1
  C  C459  1  0.93070045  0.58182225  0.20659840  1
  C  C460  1  0.91806128  0.58895845  0.23251657  1
  C  C461  1  0.97258569  0.53368006  0.09205563  1
  C  C462  1  0.89447823  0.56974068  0.20414478  1
  C  C463  1  0.93835447  0.55917376  0.15445263  1
  C  C464  1  0.94895485  0.55120838  0.13274663  1
  C  C465  1  0.96101707  0.54212551  0.11036200  1
  C  C466  1  0.89978487  0.58203830  0.23393414  1
  C  C467  1  0.47225663  0.92525225  0.20549032  1
  C  C468  1  0.46076260  0.93406685  0.17763874  1
  C  C469  1  0.44161767  0.92990218  0.18004964  1
  C  C470  1  0.43466189  0.91732548  0.20676129  1
  C  C471  1  0.49278025  0.98253837  0.08895367  1
  C  C472  1  0.46534682  0.91267107  0.23167322  1
  C  C473  1  0.46875128  0.94642382  0.15066884  1
  C  C474  1  0.47654802  0.95725450  0.12871130  1
  C  C475  1  0.48529371  0.97007244  0.10701780  1
  C  C476  1  0.44652098  0.90762343  0.23222872  1
  C  C477  1  0.58744672  0.10626855  0.19239383  1
  C  C478  1  0.56836858  0.10518387  0.18272144  1
  C  C479  1  0.55684278  0.11777221  0.20224609  1
  C  C480  1  0.56372795  0.13017527  0.22868083  1
  C  C481  1  0.53739780  0.05701354  0.09192483  1
  C  C482  1  0.59437094  0.11864931  0.21936880  1
  C  C483  1  0.56068829  0.09263452  0.15589108  1
  C  C484  1  0.55342986  0.08168847  0.13350545  1
  C  C485  1  0.54507663  0.06906848  0.11073575  1
  C  C486  1  0.58266027  0.13103501  0.23885284  1
  C  C487  1  0.10225626  0.44261308  0.17364309  1
  C  C488  1  0.09383812  0.45988391  0.17935151  1
  C  C489  1  0.09821714  0.46888937  0.21492219  1
  C  C490  1  0.11039874  0.46156336  0.24144256  1
  C  C491  1  0.04632885  0.49368977  0.09198720  1
  C  C492  1  0.11409496  0.43501572  0.20093591  1
  C  C493  1  0.08156578  0.46801911  0.15251380  1
  C  C494  1  0.07057531  0.47573343  0.13088833  1
  C  C495  1  0.05794086  0.48498329  0.10987610  1
  C  C496  1  0.11897095  0.44455233  0.23533735  1
  C  C497  1  0.90775992  0.56962699  0.83226409  1
  C  C498  1  0.92671993  0.56717094  0.82368682  1
  C  C499  1  0.93297505  0.57433002  0.78728247  1
  C  C500  1  0.92112067  0.58236266  0.76098530  1
  C  C501  1  0.97438442  0.53289598  0.90968923  1
  C  C502  1  0.89597983  0.57797968  0.80618721  1
  C  C503  1  0.93887700  0.55829479  0.84949552  1
  C  C504  1  0.94992795  0.55044317  0.87070209  1
  C  C505  1  0.96268277  0.54143474  0.89173987  1
  C  C506  1  0.90218046  0.58429595  0.76936779  1
  C  C507  1  0.44100215  0.93016727  0.81758275  1
  C  C508  1  0.46033183  0.93347140  0.82084523  1
  C  C509  1  0.47178443  0.92315750  0.79571494  1
  C  C510  1  0.46464775  0.91024249  0.77070954  1
  C  C511  1  0.49140398  0.98166746  0.91092706  1
  C  C512  1  0.43377739  0.91804762  0.79076523  1
  C  C513  1  0.46811976  0.94596902  0.84743236  1
  C  C514  1  0.47535073  0.95692000  0.86979133  1
  C  C515  1  0.48369083  0.96957414  0.89234504  1
  C  C516  1  0.44533967  0.90811163  0.76535553  1
  S  S517  1  0.50700425  0.51786392  0.57219963  1
  S  S518  1  0.50807801  0.52064497  0.42741476  1
  N  N519  1  0.51642576  0.49284144  0.49843262  1
  N  N520  1  0.53572859  0.52326718  0.50074200  1
  N  N521  1  0.50288457  0.54353779  0.49878288  1
  N  N522  1  0.48406184  0.51176533  0.49768900  1
  O  O523  1  0.02583158  0.50062320  0.04028615  1
  O  O524  1  0.02941252  0.51824272  0.09561991  1
  O  O525  1  0.99075339  0.52249449  0.03971646  1
  O  O526  1  0.99503632  0.51540027  0.10506742  1
  O  O527  1  0.99501435  0.52630486  0.96116607  1
  O  O528  1  0.99109046  0.50824743  0.90649238  1
  O  O529  1  0.02962910  0.50449593  0.96115193  1
  O  O530  1  0.02507634  0.51197876  0.89605032  1
  O  O531  1  0.51976490  0.03843136  0.96098408  1
  O  O532  1  0.53316340  0.02613596  0.90598663  1
  O  O533  1  0.50315187  0.00080090  0.96159649  1
  O  O534  1  0.50565664  0.00653080  0.89512859  1
  O  O535  1  0.50917146  -0.00031890  0.04052648  1
  O  O536  1  0.49553244  0.01187119  0.09526816  1
  O  O537  1  0.52581356  0.03825964  0.04017170  1
  O  O538  1  0.52309482  0.03186723  0.10620741  1
  O  O539  1  0.18633119  0.42280184  0.41018029  1
  O  O540  1  0.19135866  0.42638503  0.59636279  1
  O  O541  1  0.25485740  0.43929700  0.48484892  1
  O  O542  1  0.60501994  0.19771951  0.41297573  1
  O  O543  1  0.60145445  0.20233915  0.59988079  1
  O  O544  1  0.58852950  0.26581971  0.48793221  1
  O  O545  1  0.83332139  0.58101311  0.58885672  1
  O  O546  1  0.82814669  0.58542118  0.40358033  1
  O  O547  1  0.76448229  0.59704283  0.51406157  1
  O  O548  1  0.44650915  0.84011994  0.58565464  1
  O  O549  1  0.44277181  0.83581951  0.39998201  1
  O  O550  1  0.43056070  0.77165040  0.51158559  1
