# generated using pymatgen
data_MgH117C135(N5O7)2
_symmetry_space_group_name_H-M   'P 1'
_cell_length_a   68.03812658
_cell_length_b   68.72783083
_cell_length_c   34.32126966
_cell_angle_alpha   89.69886973
_cell_angle_beta   90.62436245
_cell_angle_gamma   67.74811598
_symmetry_Int_Tables_number   1
_chemical_formula_structural   MgH117C135(N5O7)2
_chemical_formula_sum   'Mg2 H234 C270 N20 O28'
_cell_volume   148521.66584346
_cell_formula_units_Z   2
loop_
 _symmetry_equiv_pos_site_id
 _symmetry_equiv_pos_as_xyz
  1  'x, y, z'
loop_
 _atom_site_type_symbol
 _atom_site_label
 _atom_site_symmetry_multiplicity
 _atom_site_fract_x
 _atom_site_fract_y
 _atom_site_fract_z
 _atom_site_occupancy
  Mg  Mg0  1  0.00622411  0.50615708  0.00359393  1
  Mg  Mg1  1  0.50558570  0.00569920  0.00477489  1
  H  H2  1  0.50565359  0.56065354  0.54252454  1
  H  H3  1  0.45480973  0.52698652  0.56009499  1
  H  H4  1  0.47838954  0.50442039  0.56503119  1
  H  H5  1  0.46943271  0.53907639  0.50279288  1
  H  H6  1  0.49238117  0.51668578  0.50426886  1
  H  H7  1  0.47990985  0.54975374  0.56946594  1
  H  H8  1  0.50430164  0.52799337  0.56671109  1
  H  H9  1  0.50964719  0.53212837  0.47630724  1
  H  H10  1  0.52171567  0.55085918  0.48010816  1
  H  H11  1  0.48036219  0.49691946  0.46798464  1
  H  H12  1  0.46600146  0.48071710  0.47644025  1
  H  H13  1  0.44822129  0.53226340  0.47704453  1
  H  H14  1  0.44175451  0.51043896  0.46394586  1
  H  H15  1  0.46662734  0.56610441  0.51031429  1
  H  H16  1  0.48358466  0.56402615  0.47051577  1
  H  H17  1  0.50540091  0.45160279  0.46807021  1
  H  H18  1  0.55615365  0.48532823  0.44987002  1
  H  H19  1  0.53253377  0.50777419  0.44530630  1
  H  H20  1  0.54197205  0.47308268  0.50743521  1
  H  H21  1  0.51887544  0.49531938  0.50622534  1
  H  H22  1  0.53132293  0.46220366  0.44114260  1
  H  H23  1  0.50702282  0.48413828  0.44335686  1
  H  H24  1  0.50119145  0.48051381  0.53370940  1
  H  H25  1  0.48903372  0.46186392  0.53005609  1
  H  H26  1  0.53054658  0.51591798  0.54223174  1
  H  H27  1  0.54519145  0.53173244  0.53294947  1
  H  H28  1  0.56024736  0.48498219  0.54220088  1
  H  H29  1  0.57280615  0.50337198  0.54006177  1
  H  H30  1  0.54417598  0.44639020  0.50047791  1
  H  H31  1  0.52714352  0.44881613  0.54034919  1
  H  H32  1  0.10392336  0.60167670  0.25526123  1
  H  H33  1  0.10973598  0.55639888  0.27949481  1
  H  H34  1  0.13211336  0.54078326  0.33239240  1
  H  H35  1  0.15350965  0.54213191  0.38955772  1
  H  H36  1  0.13986404  0.60778511  0.36597447  1
  H  H37  1  0.11838429  0.60659797  0.30832263  1
  H  H38  1  0.17859894  0.54574288  0.42442687  1
  H  H39  1  0.15377861  0.55428275  0.44807035  1
  H  H40  1  0.13249501  0.58337716  0.53199019  1
  H  H41  1  0.14188010  0.55884647  0.50869027  1
  H  H42  1  0.13258700  0.58233993  0.48054991  1
  H  H43  1  0.20126910  0.55581449  0.41019858  1
  H  H44  1  0.22040645  0.53866944  0.44280545  1
  H  H45  1  0.22179612  0.56290201  0.42831301  1
  H  H46  1  0.19257363  0.59849050  0.58968260  1
  H  H47  1  0.20894888  0.60322396  0.55387123  1
  H  H48  1  0.21730373  0.57882452  0.57880245  1
  H  H49  1  0.23636019  0.56814392  0.52720168  1
  H  H50  1  0.23672683  0.56319406  0.47631228  1
  H  H51  1  0.26493694  0.56288835  0.49825126  1
  H  H52  1  0.29870781  0.56610033  0.49955056  1
  H  H53  1  0.26775380  0.63379201  0.48357947  1
  H  H54  1  0.23305003  0.62986585  0.48056980  1
  H  H55  1  0.30891129  0.61643296  0.49138155  1
  H  H56  1  0.32169848  0.56922056  0.51338040  1
  H  H57  1  0.16206150  0.60822375  0.57989165  1
  H  H58  1  0.14158683  0.60008011  0.56432966  1
  H  H59  1  0.13569907  0.61777125  0.62103196  1
  H  H60  1  0.10929839  0.62459410  0.67275000  1
  H  H61  1  0.13769358  0.55919756  0.70837891  1
  H  H62  1  0.16233779  0.55213415  0.65342789  1
  H  H63  1  0.09530247  0.61267210  0.72969796  1
  H  H64  1  0.10913512  0.56453288  0.73465949  1
  H  H65  1  0.57592159  0.12209425  0.25841606  1
  H  H66  1  0.61751251  0.08537680  0.28050747  1
  H  H67  1  0.63793241  0.09648307  0.33123957  1
  H  H68  1  0.63817969  0.11781632  0.38814518  1
  H  H69  1  0.57106405  0.15350578  0.37194901  1
  H  H70  1  0.57028890  0.13075783  0.31705071  1
  H  H71  1  0.63463565  0.14610145  0.42676087  1
  H  H72  1  0.62656986  0.12738079  0.45029342  1
  H  H73  1  0.59616635  0.12803917  0.53401306  1
  H  H74  1  0.62128470  0.11851232  0.51212151  1
  H  H75  1  0.59793956  0.12751528  0.48272197  1
  H  H76  1  0.62468654  0.17645625  0.41355976  1
  H  H77  1  0.64140163  0.18330685  0.44604456  1
  H  H78  1  0.61622340  0.20207110  0.43204013  1
  H  H79  1  0.58209304  0.19786428  0.59317009  1
  H  H80  1  0.57701105  0.21774093  0.55690145  1
  H  H81  1  0.60152031  0.20809989  0.58246557  1
  H  H82  1  0.61291601  0.21887975  0.53244911  1
  H  H83  1  0.61945920  0.21546726  0.48235953  1
  H  H84  1  0.61722434  0.24531856  0.50218177  1
  H  H85  1  0.60998833  0.28282176  0.50580286  1
  H  H86  1  0.54309596  0.29694028  0.48580364  1
  H  H87  1  0.55052045  0.25865841  0.48279865  1
  H  H88  1  0.55381524  0.32524021  0.49616321  1
  H  H89  1  0.60194240  0.31592157  0.50604850  1
  H  H90  1  0.57285841  0.17495275  0.58316639  1
  H  H91  1  0.58144641  0.14845709  0.56875884  1
  H  H92  1  0.56276291  0.15721214  0.62110864  1
  H  H93  1  0.55395370  0.13627606  0.67090909  1
  H  H94  1  0.61866015  0.11352376  0.71470803  1
  H  H95  1  0.62767881  0.13375027  0.66263634  1
  H  H96  1  0.56137928  0.11453017  0.72089543  1
  H  H97  1  0.60627772  0.09259548  0.75761578  1
  H  H98  1  0.89285947  0.43927148  0.75161699  1
  H  H99  1  0.92611350  0.39497702  0.73452949  1
  H  H100  1  0.91535764  0.37544623  0.68569328  1
  H  H101  1  0.89360908  0.37441681  0.62870770  1
  H  H102  1  0.85718708  0.44093506  0.63951794  1
  H  H103  1  0.87976017  0.44242298  0.69535202  1
  H  H104  1  0.86652851  0.37699715  0.58903225  1
  H  H105  1  0.88533685  0.38534862  0.56631647  1
  H  H106  1  0.88457761  0.41524970  0.48107969  1
  H  H107  1  0.89432093  0.39037251  0.50411599  1
  H  H108  1  0.88508804  0.41349699  0.53245224  1
  H  H109  1  0.83607618  0.38675325  0.60125414  1
  H  H110  1  0.82871519  0.37026256  0.56969324  1
  H  H111  1  0.81017523  0.39547430  0.58191187  1
  H  H112  1  0.81367320  0.42965996  0.42035606  1
  H  H113  1  0.79390681  0.43454890  0.45641319  1
  H  H114  1  0.80321571  0.41048908  0.43122357  1
  H  H115  1  0.79291430  0.39846948  0.48093627  1
  H  H116  1  0.79701916  0.39140246  0.53113214  1
  H  H117  1  0.76695939  0.39391706  0.51029859  1
  H  H118  1  0.72885345  0.40114351  0.50835152  1
  H  H119  1  0.71521299  0.46697583  0.52905336  1
  H  H120  1  0.75389506  0.45977871  0.52933456  1
  H  H121  1  0.68829677  0.45443663  0.53952420  1
  H  H122  1  0.69174903  0.41137991  0.50814167  1
  H  H123  1  0.83670793  0.43926074  0.43123193  1
  H  H124  1  0.86357068  0.43056021  0.44632901  1
  H  H125  1  0.85514124  0.44945675  0.39296010  1
  H  H126  1  0.87530549  0.45819054  0.34154611  1
  H  H127  1  0.89709636  0.39405747  0.30082860  1
  H  H128  1  0.87738016  0.38533885  0.35355671  1
  H  H129  1  0.89832591  0.44931829  0.28872688  1
  H  H130  1  0.91001178  0.40518175  0.25302588  1
  H  H131  1  0.41035345  0.90845913  0.74597112  1
  H  H132  1  0.45602664  0.90323264  0.72272352  1
  H  H133  1  0.47184490  0.87994616  0.67161921  1
  H  H134  1  0.47036182  0.85764354  0.61698941  1
  H  H135  1  0.40413481  0.87164745  0.63912925  1
  H  H136  1  0.40548524  0.89370196  0.69465460  1
  H  H137  1  0.46650405  0.83257682  0.58265576  1
  H  H138  1  0.45778983  0.85733480  0.55852738  1
  H  H139  1  0.42830173  0.87884197  0.47332813  1
  H  H140  1  0.45313145  0.86940894  0.49750605  1
  H  H141  1  0.42947032  0.87850548  0.52478298  1
  H  H142  1  0.45634771  0.80996350  0.59696681  1
  H  H143  1  0.47348364  0.79116933  0.56503910  1
  H  H144  1  0.44899716  0.78984409  0.57879426  1
  H  H145  1  0.41321692  0.81952583  0.41563660  1
  H  H146  1  0.40847540  0.80311603  0.45147438  1
  H  H147  1  0.43310898  0.79500723  0.42762090  1
  H  H148  1  0.44371362  0.77596746  0.47976453  1
  H  H149  1  0.44900077  0.77522213  0.53074686  1
  H  H150  1  0.44936753  0.74750076  0.50913257  1
  H  H151  1  0.44621877  0.71416828  0.50521832  1
  H  H152  1  0.37802075  0.74409024  0.52167879  1
  H  H153  1  0.38174689  0.77854907  0.52483560  1
  H  H154  1  0.39576843  0.70347232  0.51303150  1
  H  H155  1  0.44423868  0.69060242  0.49928250  1
  H  H156  1  0.40355388  0.84973216  0.42451011  1
  H  H157  1  0.41196257  0.86983968  0.43992414  1
  H  H158  1  0.39413791  0.87594812  0.38398781  1
  H  H159  1  0.38683492  0.90199136  0.33085830  1
  H  H160  1  0.45321721  0.87634842  0.30033440  1
  H  H161  1  0.46022788  0.84937709  0.35264647  1
  H  H162  1  0.40014028  0.91970317  0.28113934  1
  H  H163  1  0.43983909  0.88974790  0.24055132  1
  H  H164  1  0.41633805  0.50150171  0.51136884  1
  H  H165  1  0.35184063  0.60721883  0.50161793  1
  H  H166  1  0.50398835  0.41918650  0.50472553  1
  H  H167  1  0.60898409  0.34919077  0.50838657  1
  H  H168  1  0.57900641  0.44895081  0.50975724  1
  H  H169  1  0.67112347  0.46694057  0.48706202  1
  H  H170  1  0.50697770  0.59282419  0.51493020  1
  H  H171  1  0.40302786  0.66446956  0.49538403  1
  H  H172  1  0.06666844  0.51798785  0.91976460  1
  H  H173  1  0.09325971  0.53061619  0.88803752  1
  H  H174  1  0.10143684  0.55201345  0.83859521  1
  H  H175  1  0.03488111  0.58093889  0.80735975  1
  H  H176  1  0.02697676  0.55774302  0.85299344  1
  H  H177  1  0.06049329  0.58818317  0.76802457  1
  H  H178  1  0.02009419  0.54803718  0.90411097  1
  H  H179  1  0.10176204  0.58390301  0.80988993  1
  H  H180  1  0.50856046  0.06173291  0.89380249  1
  H  H181  1  0.51705219  0.08762250  0.85309471  1
  H  H182  1  0.54224630  0.09690418  0.81588306  1
  H  H183  1  0.59275091  0.03882176  0.85361200  1
  H  H184  1  0.56688434  0.03002380  0.89176677  1
  H  H185  1  0.60121226  0.06333717  0.80783472  1
  H  H186  1  0.54632741  0.03573292  0.94669395  1
  H  H187  1  0.55994177  0.09748944  0.77481511  1
  H  H188  1  0.98809277  0.47378661  0.14870968  1
  H  H189  1  0.97980598  0.45534895  0.19758508  1
  H  H190  1  0.95687329  0.44030911  0.22891174  1
  H  H191  1  0.91490571  0.45734240  0.12796871  1
  H  H192  1  0.93746554  0.47332230  0.09754851  1
  H  H193  1  0.90533659  0.44063642  0.18345277  1
  H  H194  1  0.95999716  0.48711090  0.07406419  1
  H  H195  1  0.94091003  0.42211508  0.24597146  1
  H  H196  1  0.48898062  0.97664939  0.14830930  1
  H  H197  1  0.47807579  0.96177189  0.20257386  1
  H  H198  1  0.45831302  0.94215518  0.23130850  1
  H  H199  1  0.43550195  0.93435639  0.11659314  1
  H  H200  1  0.45590745  0.95319853  0.08776926  1
  H  H201  1  0.42686803  0.91714066  0.17297713  1
  H  H202  1  0.47790422  0.96571318  0.06571703  1
  H  H203  1  0.43013241  0.93651859  0.25178622  1
  H  H204  1  0.51366467  0.05071128  0.13973158  1
  H  H205  1  0.52036195  0.07096509  0.18924558  1
  H  H206  1  0.54332850  0.08405885  0.22527917  1
  H  H207  1  0.59218820  0.05792985  0.13876581  1
  H  H208  1  0.56905605  0.04397712  0.10379878  1
  H  H209  1  0.59960226  0.07684451  0.19520233  1
  H  H210  1  0.54422490  0.03737814  0.07035090  1
  H  H211  1  0.56195186  0.09368994  0.25221020  1
  H  H212  1  0.02581806  0.53244342  0.14818649  1
  H  H213  1  0.03565584  0.54960943  0.19936602  1
  H  H214  1  0.05813124  0.56635687  0.22815696  1
  H  H215  1  0.09131815  0.55980311  0.11910620  1
  H  H216  1  0.06953726  0.54191047  0.09116349  1
  H  H217  1  0.10307869  0.57459220  0.17611407  1
  H  H218  1  0.05414678  0.51950397  0.07592518  1
  H  H219  1  0.06928073  0.58996917  0.24024785  1
  H  H220  1  0.99484316  0.46019555  0.88413945  1
  H  H221  1  0.98709694  0.43887795  0.83944457  1
  H  H222  1  0.96255164  0.42837742  0.80090416  1
  H  H223  1  0.90983881  0.47325181  0.86285956  1
  H  H224  1  0.93447898  0.48433824  0.90014097  1
  H  H225  1  0.90223145  0.45308663  0.81215991  1
  H  H226  1  0.95874460  0.49095424  0.93380208  1
  H  H227  1  0.94050241  0.41791321  0.77461504  1
  H  H228  1  0.47894759  0.95219222  0.94097074  1
  H  H229  1  0.45815001  0.92983549  0.91291731  1
  H  H230  1  0.44412471  0.91819508  0.85587989  1
  H  H231  1  0.45610053  0.96462504  0.78482353  1
  H  H232  1  0.47383792  0.97340714  0.84088646  1
  H  H233  1  0.44169800  0.94143646  0.75379404  1
  H  H234  1  0.46384903  0.99336332  0.89283191  1
  H  H235  1  0.42231595  0.91796282  0.80866262  1
  C  C236  1  0.99069335  0.49107533  0.07826559  1
  C  C237  1  0.02467471  0.51724030  0.92839986  1
  C  C238  1  0.02146908  0.52089644  0.07268357  1
  C  C239  1  0.99147159  0.48940016  0.93932908  1
  C  C240  1  0.49188054  0.98803562  0.93023321  1
  C  C241  1  0.52107534  0.02229038  0.07900378  1
  C  C242  1  0.52149229  0.02292877  0.93678783  1
  C  C243  1  0.48989194  0.99099328  0.07383402  1
  C  C244  1  0.46818645  0.51598044  0.54362598  1
  C  C245  1  0.48049736  0.52772140  0.52313100  1
  C  C246  1  0.49117568  0.53898796  0.54915417  1
  C  C247  1  0.51711684  0.53957639  0.49670650  1
  C  C248  1  0.47488790  0.48907993  0.49133615  1
  C  C249  1  0.44313604  0.52000722  0.48900404  1
  C  C250  1  0.48100066  0.56839046  0.50143739  1
  C  C251  1  0.54280100  0.49621203  0.46659965  1
  C  C252  1  0.53071150  0.48435235  0.48720808  1
  C  C253  1  0.52001097  0.47314390  0.46117304  1
  C  C254  1  0.49374088  0.47303489  0.51334383  1
  C  C255  1  0.53608195  0.52346417  0.51847143  1
  C  C256  1  0.56745919  0.49295135  0.52201434  1
  C  C257  1  0.52978638  0.44424363  0.50954862  1
  C  C258  1  0.10112712  0.58701088  0.25510107  1
  C  C259  1  0.11109745  0.57168258  0.28230269  1
  C  C260  1  0.12374904  0.57333035  0.31523376  1
  C  C261  1  0.13382556  0.55550311  0.33952204  1
  C  C262  1  0.14567501  0.55632146  0.37207294  1
  C  C263  1  0.14755332  0.57528239  0.38171761  1
  C  C264  1  0.13804617  0.59317923  0.35820781  1
  C  C265  1  0.12613390  0.59232520  0.32559637  1
  C  C266  1  0.16693949  0.55903378  0.43996192  1
  C  C267  1  0.17659612  0.56584395  0.47411696  1
  C  C268  1  0.19736192  0.56556967  0.47076817  1
  C  C269  1  0.20555835  0.57403397  0.50134269  1
  C  C270  1  0.19316853  0.58298623  0.53432334  1
  C  C271  1  0.17204962  0.58405423  0.53606010  1
  C  C272  1  0.16374255  0.57500757  0.50648965  1
  C  C273  1  0.14166576  0.57496140  0.50711437  1
  C  C274  1  0.21077660  0.55537146  0.43643530  1
  C  C275  1  0.20330401  0.59136126  0.56569858  1
  C  C276  1  0.22768911  0.57368417  0.49938460  1
  C  C277  1  0.24658329  0.59631419  0.49092768  1
  C  C278  1  0.26524837  0.57859123  0.49579267  1
  C  C279  1  0.28475613  0.58064881  0.49686245  1
  C  C280  1  0.28643298  0.60048904  0.49344450  1
  C  C281  1  0.26720485  0.61822523  0.48711008  1
  C  C282  1  0.24763731  0.61613783  0.48564573  1
  C  C283  1  0.30740595  0.60135829  0.49593322  1
  C  C284  1  0.32437531  0.58338184  0.50518323  1
  C  C285  1  0.15874806  0.59445346  0.57041369  1
  C  C286  1  0.14966843  0.58417223  0.63234853  1
  C  C287  1  0.13526824  0.60471204  0.63871884  1
  C  C288  1  0.12078039  0.60861811  0.66869229  1
  C  C289  1  0.12049940  0.59231076  0.69391015  1
  C  C290  1  0.13629180  0.57195144  0.68821333  1
  C  C291  1  0.15056327  0.56794113  0.65780308  1
  C  C292  1  0.10563496  0.59623022  0.72546268  1
  C  C293  1  0.10296936  0.58044180  0.74672691  1
  C  C294  1  0.58640352  0.10541931  0.25971215  1
  C  C295  1  0.60362942  0.09979292  0.28473806  1
  C  C296  1  0.60430630  0.11244908  0.31793118  1
  C  C297  1  0.62311823  0.10884367  0.34003734  1
  C  C298  1  0.62325350  0.12080577  0.37251669  1
  C  C299  1  0.60441100  0.13678500  0.38426092  1
  C  C300  1  0.58562116  0.14085242  0.36293043  1
  C  C301  1  0.58542748  0.12848532  0.33111365  1
  C  C302  1  0.62136374  0.14411489  0.44210047  1
  C  C303  1  0.61441843  0.15854729  0.47649044  1
  C  C304  1  0.61524270  0.17875913  0.47421530  1
  C  C305  1  0.60773497  0.19257033  0.50579275  1
  C  C306  1  0.59819952  0.18704733  0.53823531  1
  C  C307  1  0.59710207  0.16693431  0.53958775  1
  C  C308  1  0.60548620  0.15241137  0.50920941  1
  C  C309  1  0.60512255  0.13068156  0.50966328  1
  C  C310  1  0.62475439  0.18542357  0.43981942  1
  C  C311  1  0.58923461  0.20332023  0.56919342  1
  C  C312  1  0.60831454  0.21415807  0.50419032  1
  C  C313  1  0.58410069  0.24968052  0.49388511  1
  C  C314  1  0.60085897  0.25649705  0.49938731  1
  C  C315  1  0.59673208  0.27785881  0.50090780  1
  C  C316  1  0.57577299  0.29298750  0.49659775  1
  C  C317  1  0.55927684  0.28553360  0.48972500  1
  C  C318  1  0.56334553  0.26420474  0.48810615  1
  C  C319  1  0.57064659  0.31540391  0.49885971  1
  C  C320  1  0.58493975  0.32486409  0.50359109  1
  C  C321  1  0.58691834  0.16133558  0.57423560  1
  C  C322  1  0.59627569  0.14526708  0.63675765  1
  C  C323  1  0.57527575  0.14687119  0.64026816  1
  C  C324  1  0.57020484  0.13552566  0.66907235  1
  C  C325  1  0.58559328  0.12271470  0.69623297  1
  C  C326  1  0.60644369  0.12260742  0.69372317  1
  C  C327  1  0.61161291  0.13394764  0.66450382  1
  C  C328  1  0.57830946  0.11131343  0.72445523  1
  C  C329  1  0.58909336  0.09742339  0.75365895  1
  C  C330  1  0.90869155  0.42672414  0.75173973  1
  C  C331  1  0.91257486  0.40953619  0.72811933  1
  C  C332  1  0.89931684  0.40890744  0.69555141  1
  C  C333  1  0.90282643  0.38992945  0.67542092  1
  C  C334  1  0.89068322  0.38935632  0.64307295  1
  C  C335  1  0.87454585  0.40788622  0.62981205  1
  C  C336  1  0.87014074  0.42673968  0.64972586  1
  C  C337  1  0.88261060  0.42737913  0.68157154  1
  C  C338  1  0.86838349  0.39014187  0.57309229  1
  C  C339  1  0.85412320  0.39655402  0.53777060  1
  C  C340  1  0.83376006  0.39574190  0.53988104  1
  C  C341  1  0.81981872  0.40319322  0.50771055  1
  C  C342  1  0.82500335  0.41320444  0.47553423  1
  C  C343  1  0.84518933  0.41455903  0.47472583  1
  C  C344  1  0.86007794  0.40585404  0.50533282  1
  C  C345  1  0.88196947  0.40634175  0.50562087  1
  C  C346  1  0.82692581  0.38669038  0.57481501  1
  C  C347  1  0.80829253  0.42245855  0.44436566  1
  C  C348  1  0.79809551  0.40262888  0.50915393  1
  C  C349  1  0.76262761  0.42656856  0.51960410  1
  C  C350  1  0.75570177  0.41002269  0.51385851  1
  C  C351  1  0.73413034  0.41402780  0.51379663  1
  C  C352  1  0.71919830  0.43440264  0.52157813  1
  C  C353  1  0.72669268  0.45093961  0.52598618  1
  C  C354  1  0.74817696  0.44707230  0.52540393  1
  C  C355  1  0.69666980  0.43950057  0.52504706  1
  C  C356  1  0.68501598  0.42840477  0.51169099  1
  C  C357  1  0.85052058  0.42522780  0.44042647  1
  C  C358  1  0.86620808  0.41643181  0.37793693  1
  C  C359  1  0.86492052  0.43713362  0.37365965  1
  C  C360  1  0.87579055  0.44218999  0.34390545  1
  C  C361  1  0.88766113  0.42709499  0.31650534  1
  C  C362  1  0.88796078  0.40638275  0.32073652  1
  C  C363  1  0.87707197  0.40126800  0.35064931  1
  C  C364  1  0.89920123  0.43313587  0.28670014  1
  C  C365  1  0.91027514  0.42089936  0.25676501  1
  C  C366  1  0.42547882  0.91053079  0.74767741  1
  C  C367  1  0.44067444  0.90169354  0.71991204  1
  C  C368  1  0.43889658  0.88893905  0.68766361  1
  C  C369  1  0.45684644  0.87844206  0.66440462  1
  C  C370  1  0.45597755  0.86603981  0.63321766  1
  C  C371  1  0.43682998  0.86400113  0.62370319  1
  C  C372  1  0.41886778  0.87371479  0.64643278  1
  C  C373  1  0.41981091  0.88604898  0.67783606  1
  C  C374  1  0.45298235  0.84430011  0.56681699  1
  C  C375  1  0.44590392  0.83494138  0.53264612  1
  C  C376  1  0.44630555  0.81430275  0.53608505  1
  C  C377  1  0.43784595  0.80629965  0.50518297  1
  C  C378  1  0.42885731  0.81870313  0.47165296  1
  C  C379  1  0.42781164  0.83961423  0.46962649  1
  C  C380  1  0.43679126  0.84776731  0.49959722  1
  C  C381  1  0.43685197  0.86962753  0.49860664  1
  C  C382  1  0.45665613  0.80075271  0.57083675  1
  C  C383  1  0.42043475  0.80879792  0.44004709  1
  C  C384  1  0.43826056  0.78434939  0.50736705  1
  C  C385  1  0.41557684  0.76546482  0.51530973  1
  C  C386  1  0.43353105  0.74711392  0.51084274  1
  C  C387  1  0.43154986  0.72779296  0.50903313  1
  C  C388  1  0.41163345  0.72593617  0.51218509  1
  C  C389  1  0.39366018  0.74479895  0.51832773  1
  C  C390  1  0.39563667  0.76422091  0.51998090  1
  C  C391  1  0.41098563  0.70510997  0.50964121  1
  C  C392  1  0.42939288  0.68826767  0.50334355  1
  C  C393  1  0.41751857  0.85286594  0.43451177  1
  C  C394  1  0.42794385  0.86185123  0.37284287  1
  C  C395  1  0.40716748  0.87626070  0.36612536  1
  C  C396  1  0.40300576  0.89068555  0.33576124  1
  C  C397  1  0.41935996  0.89097087  0.31078169  1
  C  C398  1  0.44015658  0.87585544  0.31787288  1
  C  C399  1  0.44425224  0.86107969  0.34774181  1
  C  C400  1  0.41554720  0.90662426  0.28062884  1
  C  C401  1  0.42959394  0.90529742  0.25110184  1
  C  C402  1  0.39062483  0.56096191  0.50480778  1
  C  C403  1  0.37814311  0.54774185  0.50838013  1
  C  C404  1  0.40829076  0.51857365  0.50997032  1
  C  C405  1  0.42051410  0.53091814  0.50306281  1
  C  C406  1  0.35971913  0.59008968  0.50285980  1
  C  C407  1  0.34740334  0.57735752  0.50435511  1
  C  C408  1  0.56388239  0.38972184  0.50509946  1
  C  C409  1  0.54906469  0.37886543  0.50419469  1
  C  C410  1  0.52116876  0.41037916  0.50419130  1
  C  C411  1  0.53532176  0.42093160  0.50457849  1
  C  C412  1  0.59188780  0.35837035  0.50706764  1
  C  C413  1  0.57756386  0.34736988  0.50485976  1
  C  C414  1  0.62294756  0.46931139  0.49729102  1
  C  C415  1  0.62750590  0.44673682  0.50197565  1
  C  C416  1  0.59199799  0.45443454  0.50631600  1
  C  C417  1  0.58772191  0.47634211  0.50630069  1
  C  C418  1  0.65810097  0.46186781  0.49354012  1
  C  C419  1  0.66286522  0.44028837  0.50380727  1
  C  C420  1  0.44736865  0.62339824  0.50357149  1
  C  C421  1  0.46247788  0.63374399  0.50863171  1
  C  C422  1  0.48988048  0.60188986  0.51193427  1
  C  C423  1  0.47553643  0.59174136  0.50685618  1
  C  C424  1  0.41999451  0.65526895  0.49955373  1
  C  C425  1  0.43441653  0.66566235  0.50436149  1
  C  C426  1  0.03308323  0.53312810  0.91156142  1
  C  C427  1  0.05358127  0.53004526  0.90427806  1
  C  C428  1  0.05916108  0.54296316  0.87631071  1
  C  C429  1  0.08031742  0.54169405  0.87058731  1
  C  C430  1  0.08493947  0.55398529  0.84298350  1
  C  C431  1  0.06873113  0.56876194  0.81938035  1
  C  C432  1  0.04772137  0.56984208  0.82495312  1
  C  C433  1  0.04316940  0.55718695  0.85182093  1
  C  C434  1  0.07350129  0.58074789  0.78887381  1
  C  C435  1  0.09277126  0.58254730  0.78400593  1
  C  C436  1  0.53164240  0.03881113  0.92989921  1
  C  C437  1  0.52533162  0.05351162  0.90115441  1
  C  C438  1  0.54014325  0.05875201  0.87756592  1
  C  C439  1  0.53370299  0.07699022  0.85351906  1
  C  C440  1  0.54803932  0.08185383  0.83134764  1
  C  C441  1  0.56987312  0.06822406  0.83001820  1
  C  C442  1  0.57619606  0.04969764  0.85366792  1
  C  C443  1  0.56180311  0.04499176  0.87603968  1
  C  C444  1  0.58438122  0.07339356  0.80560143  1
  C  C445  1  0.57713437  0.08977939  0.77911520  1
  C  C446  1  0.97370175  0.48404178  0.09346277  1
  C  C447  1  0.97498558  0.47502195  0.12904190  1
  C  C448  1  0.96067840  0.46583012  0.14518328  1
  C  C449  1  0.96545302  0.45592007  0.18237967  1
  C  C450  1  0.95259379  0.44706714  0.19976440  1
  C  C451  1  0.93392357  0.44704610  0.18081410  1
  C  C452  1  0.92913706  0.45693032  0.14345050  1
  C  C453  1  0.94195020  0.46596275  0.12622708  1
  C  C454  1  0.92021077  0.43805428  0.19905431  1
  C  C455  1  0.92480401  0.42689558  0.23353801  1
  C  C456  1  0.48235448  0.97442022  0.08847489  1
  C  C457  1  0.48059193  0.97091659  0.12679169  1
  C  C458  1  0.46881329  0.95910258  0.14286015  1
  C  C459  1  0.46875040  0.95572916  0.18370677  1
  C  C460  1  0.45742956  0.94488226  0.19991473  1
  C  C461  1  0.44497926  0.93680536  0.17641496  1
  C  C462  1  0.44495866  0.94024713  0.13547746  1
  C  C463  1  0.45644807  0.95094166  0.11928264  1
  C  C464  1  0.43401006  0.92475439  0.19346742  1
  C  C465  1  0.43131117  0.92324914  0.23304607  1
  C  C466  1  0.53248867  0.03644832  0.09102990  1
  C  C467  1  0.52864917  0.04735711  0.12474673  1
  C  C468  1  0.54269935  0.05600743  0.14381581  1
  C  C469  1  0.53626093  0.06781825  0.17837097  1
  C  C470  1  0.54943640  0.07539506  0.19868030  1
  C  C471  1  0.57027275  0.07198121  0.18577196  1
  C  C472  1  0.57654632  0.06059129  0.15044686  1
  C  C473  1  0.56338303  0.05281615  0.13042236  1
  C  C474  1  0.58384712  0.08023185  0.20709174  1
  C  C475  1  0.57747726  0.09186299  0.24044705  1
  C  C476  1  0.03940750  0.52466734  0.09228576  1
  C  C477  1  0.03774327  0.53330839  0.12801602  1
  C  C478  1  0.05107543  0.54376116  0.14341659  1
  C  C479  1  0.04803744  0.55165433  0.18191864  1
  C  C480  1  0.06037512  0.56161558  0.19777650  1
  C  C481  1  0.07625733  0.56517700  0.17565782  1
  C  C482  1  0.07918344  0.55747303  0.13686575  1
  C  C483  1  0.06699839  0.54725057  0.12122366  1
  C  C484  1  0.08936560  0.57511952  0.19300113  1
  C  C485  1  0.08541635  0.58476435  0.22863721  1
  C  C486  1  0.97447272  0.48343277  0.92122955  1
  C  C487  1  0.97856312  0.46867430  0.89327126  1
  C  C488  1  0.96303550  0.46260355  0.87262123  1
  C  C489  1  0.97009316  0.44652847  0.84430908  1
  C  C490  1  0.95616991  0.44051184  0.82279078  1
  C  C491  1  0.93385505  0.44999898  0.82842918  1
  C  C492  1  0.92681801  0.46578143  0.85749546  1
  C  C493  1  0.94077916  0.47195782  0.87865632  1
  C  C494  1  0.91895221  0.44439753  0.80566302  1
  C  C495  1  0.92406759  0.42900652  0.77762928  1
  C  C496  1  0.47494348  0.98131912  0.91214678  1
  C  C497  1  0.47398099  0.96197532  0.91480162  1
  C  C498  1  0.46558476  0.95398194  0.88231217  1
  C  C499  1  0.45787144  0.93745988  0.88484871  1
  C  C500  1  0.44970326  0.93102843  0.85257750  1
  C  C501  1  0.44851267  0.94065491  0.81522636  1
  C  C502  1  0.45685865  0.95670177  0.81273271  1
  C  C503  1  0.46571235  0.96257901  0.84472076  1
  C  C504  1  0.44012862  0.93401447  0.78119282  1
  C  C505  1  0.42932030  0.92059293  0.78163296  1
  N  N506  1  0.45941072  0.50538135  0.51545352  1
  N  N507  1  0.49950730  0.55249750  0.52413923  1
  N  N508  1  0.55139313  0.50684866  0.49474100  1
  N  N509  1  0.51142765  0.45991596  0.48632525  1
  N  N510  1  0.38761995  0.52679453  0.51310221  1
  N  N511  1  0.41206277  0.55184568  0.50301279  1
  N  N512  1  0.38054790  0.58195366  0.50298335  1
  N  N513  1  0.35711962  0.55643530  0.50754023  1
  N  N514  1  0.52802153  0.38979667  0.50326834  1
  N  N515  1  0.55638356  0.41068876  0.50416094  1
  N  N516  1  0.58500362  0.37881043  0.50677767  1
  N  N517  1  0.55662944  0.35787444  0.50388504  1
  N  N518  1  0.61124255  0.44014605  0.50341162  1
  N  N519  1  0.60294431  0.48340068  0.49850682  1
  N  N520  1  0.63880647  0.47605434  0.49135873  1
  N  N521  1  0.64743994  0.43261012  0.50419000  1
  N  N522  1  0.48333928  0.62243516  0.51307098  1
  N  N523  1  0.45461331  0.60239585  0.50316174  1
  N  N524  1  0.42646949  0.63476092  0.49947649  1
  N  N525  1  0.45532144  0.65464414  0.50894006  1
  O  O526  1  0.02607615  0.50862850  0.04309902  1
  O  O527  1  0.00333647  0.53083978  0.08581170  1
  O  O528  1  0.99009239  0.49559780  0.04182644  1
  O  O529  1  1.00407966  0.49148667  0.10328635  1
  O  O530  1  0.98592827  0.50446559  0.96398141  1
  O  O531  1  0.01027738  0.47851505  0.92985038  1
  O  O532  1  0.02365199  0.51530525  0.96494280  1
  O  O533  1  0.01884003  0.50901434  0.90032822  1
  O  O534  1  0.50899053  0.02479566  0.96485776  1
  O  O535  1  0.52866242  0.00897516  0.91148678  1
  O  O536  1  0.49231125  0.99125639  0.96657448  1
  O  O537  1  0.50347855  0.98963462  0.90323581  1
  O  O538  1  0.50210423  0.98678348  0.04440906  1
  O  O539  1  0.48190019  0.00795985  0.09204026  1
  O  O540  1  0.51983898  0.01887042  0.04269194  1
  O  O541  1  0.51482742  0.01508104  0.10805368  1
  O  O542  1  0.15870722  0.57714923  0.41351954  1
  O  O543  1  0.16362848  0.57930537  0.60244613  1
  O  O544  1  0.22722592  0.59475656  0.49118083  1
  O  O545  1  0.60320191  0.14938058  0.41538049  1
  O  O546  1  0.60207442  0.15488053  0.60677212  1
  O  O547  1  0.58703684  0.22898385  0.49381220  1
  O  O548  1  0.86211628  0.40852078  0.59822236  1
  O  O549  1  0.85678407  0.41057266  0.40807538  1
  O  O550  1  0.78350460  0.42364634  0.51942794  1
  O  O551  1  0.43494398  0.85239904  0.59300367  1
  O  O552  1  0.43290140  0.84796911  0.40321807  1
  O  O553  1  0.41704463  0.78467531  0.51511388  1
