# generated using pymatgen
data_CuH256C284(N5O8)2
_symmetry_space_group_name_H-M   'P 1'
_cell_length_a   69.63397643
_cell_length_b   74.54155480
_cell_length_c   32.93467463
_cell_angle_alpha   90.57356075
_cell_angle_beta   90.49053021
_cell_angle_gamma   93.65805643
_symmetry_Int_Tables_number   1
_chemical_formula_structural   CuH256C284(N5O8)2
_chemical_formula_sum   'Cu1 H256 C284 N10 O16'
_cell_volume   170587.44524076
_cell_formula_units_Z   1
loop_
 _symmetry_equiv_pos_site_id
 _symmetry_equiv_pos_as_xyz
  1  'x, y, z'
loop_
 _atom_site_type_symbol
 _atom_site_label
 _atom_site_symmetry_multiplicity
 _atom_site_fract_x
 _atom_site_fract_y
 _atom_site_fract_z
 _atom_site_occupancy
  Cu  Cu0  1  0.50173187  0.50170716  0.50073315  1
  H  H1  1  0.98466213  0.50895606  0.15723848  1
  H  H2  1  0.01779013  0.49288722  0.15691417  1
  H  H3  1  0.99024156  0.51269215  0.00274309  1
  H  H4  1  0.06929411  0.47927379  0.04239336  1
  H  H5  1  0.06917563  0.48200155  0.96169210  1
  H  H6  1  0.01694388  0.49225304  0.84608327  1
  H  H7  1  0.98442119  0.50934075  0.84646401  1
  H  H8  1  0.93440183  0.52555622  0.04204417  1
  H  H9  1  0.01340019  0.49270340  0.00443815  1
  H  H10  1  0.93465101  0.52613486  0.96143447  1
  H  H11  1  0.49240288  0.98363855  0.84736082  1
  H  H12  1  0.50915539  0.01681128  0.84653721  1
  H  H13  1  0.49547446  0.98637763  0.00314346  1
  H  H14  1  0.53311941  0.06507244  0.96064208  1
  H  H15  1  0.53377881  0.06499508  0.04176205  1
  H  H16  1  0.50999729  0.01811435  0.15481023  1
  H  H17  1  0.49252547  0.98536863  0.15542375  1
  H  H18  1  0.47052124  0.93601453  0.96028145  1
  H  H19  1  0.50387840  0.01649138  -0.00103978  1
  H  H20  1  0.46872359  0.93658387  0.04113390  1
  H  H21  1  0.46912838  0.52131262  0.53009731  1
  H  H22  1  0.45739054  0.55155753  0.51965108  1
  H  H23  1  0.51291281  0.56701044  0.46813977  1
  H  H24  1  0.51846635  0.53454381  0.46356594  1
  H  H25  1  0.53217559  0.48188888  0.46664277  1
  H  H26  1  0.54430830  0.45152065  0.47509186  1
  H  H27  1  0.48962086  0.43570096  0.52951111  1
  H  H28  1  0.48430389  0.46825740  0.53712612  1
  H  H29  1  0.10833176  0.44594156  0.27195107  1
  H  H30  1  0.10471849  0.40526443  0.25468063  1
  H  H31  1  0.11745888  0.38785530  0.31265393  1
  H  H32  1  0.13897527  0.38630116  0.37172579  1
  H  H33  1  0.15518611  0.44292880  0.36110767  1
  H  H34  1  0.13574979  0.44395923  0.29817560  1
  H  H35  1  0.16562639  0.38842150  0.41457498  1
  H  H36  1  0.14474171  0.39573741  0.43849502  1
  H  H37  1  0.13631015  0.42146380  0.52710019  1
  H  H38  1  0.13459799  0.40019692  0.50309420  1
  H  H39  1  0.13616115  0.41997140  0.47355913  1
  H  H40  1  0.19243174  0.39718614  0.40088594  1
  H  H41  1  0.20432408  0.38295879  0.43425733  1
  H  H42  1  0.21518104  0.40415995  0.42072874  1
  H  H43  1  0.20106442  0.43387879  0.58954636  1
  H  H44  1  0.21891284  0.43810500  0.55212720  1
  H  H45  1  0.21717615  0.41740369  0.57787139  1
  H  H46  1  0.23136694  0.40825619  0.52463528  1
  H  H47  1  0.22968932  0.40286454  0.47199744  1
  H  H48  1  0.25781597  0.40486475  0.49360901  1
  H  H49  1  0.29233486  0.41069026  0.49844588  1
  H  H50  1  0.28589162  0.46745498  0.47876321  1
  H  H51  1  0.25043511  0.46134858  0.47558274  1
  H  H52  1  0.31810712  0.45698576  0.48644120  1
  H  H53  1  0.32030636  0.41569988  0.49696485  1
  H  H54  1  0.17572753  0.44132268  0.57961160  1
  H  H55  1  0.15215709  0.43448409  0.56341421  1
  H  H56  1  0.15574733  0.45043714  0.61815708  1
  H  H57  1  0.13404141  0.45898836  0.67210468  1
  H  H58  1  0.13063768  0.40441069  0.71617855  1
  H  H59  1  0.15199148  0.39572195  0.66043922  1
  H  H60  1  0.11511307  0.45338106  0.72463618  1
  H  H61  1  0.11408492  0.41902797  0.77508611  1
  H  H62  1  0.56177498  0.11230272  0.25495277  1
  H  H63  1  0.60594971  0.10905046  0.25965938  1
  H  H64  1  0.62246984  0.12364649  0.31642664  1
  H  H65  1  0.62342073  0.14355663  0.37628277  1
  H  H66  1  0.56312239  0.15189974  0.35932554  1
  H  H67  1  0.56219467  0.13258257  0.29820968  1
  H  H68  1  0.62096577  0.16863258  0.41697216  1
  H  H69  1  0.61301245  0.14838794  0.44108909  1
  H  H70  1  0.58646317  0.13762873  0.52932302  1
  H  H71  1  0.60894775  0.13876218  0.50512455  1
  H  H72  1  0.58747058  0.13750789  0.47577231  1
  H  H73  1  0.61143008  0.19262398  0.40248468  1
  H  H74  1  0.62708448  0.20529626  0.43615014  1
  H  H75  1  0.60457621  0.21324917  0.42204269  1
  H  H76  1  0.57307291  0.19694624  0.59012732  1
  H  H77  1  0.56880805  0.21314012  0.55254160  1
  H  H78  1  0.59098032  0.21385408  0.57909349  1
  H  H79  1  0.60141416  0.22804698  0.52633904  1
  H  H80  1  0.60665601  0.22725404  0.47371638  1
  H  H81  1  0.60536426  0.25445712  0.49582003  1
  H  H82  1  0.59915168  0.28638979  0.49934508  1
  H  H83  1  0.53848641  0.27302033  0.47922862  1
  H  H84  1  0.54484146  0.24065328  0.47559975  1
  H  H85  1  0.54858823  0.30318339  0.48734654  1
  H  H86  1  0.58939532  0.31414741  0.51961008  1
  H  H87  1  0.56571766  0.17220667  0.58193213  1
  H  H88  1  0.57222679  0.15102671  0.56436917  1
  H  H89  1  0.55596095  0.15165804  0.61967567  1
  H  H90  1  0.54722773  0.12946271  0.67173459  1
  H  H91  1  0.60595066  0.13262719  0.71619919  1
  H  H92  1  0.61489298  0.15414301  0.66162453  1
  H  H93  1  0.55377725  0.11088496  0.72056819  1
  H  H94  1  0.59242612  0.10881664  0.76527620  1
  H  H95  1  0.89119955  0.58487568  0.75216387  1
  H  H96  1  0.89197671  0.54368355  0.73834114  1
  H  H97  1  0.87636687  0.53121695  0.68010819  1
  H  H98  1  0.85599040  0.53319954  0.61947195  1
  H  H99  1  0.85037577  0.58960577  0.64418581  1
  H  H100  1  0.87078980  0.58780191  0.70526769  1
  H  H101  1  0.83133840  0.53709050  0.58253046  1
  H  H102  1  0.85304813  0.54400180  0.55787326  1
  H  H103  1  0.86506677  0.56885812  0.47026303  1
  H  H104  1  0.86343913  0.54798011  0.49493385  1
  H  H105  1  0.86514804  0.56816469  0.52391820  1
  H  H106  1  0.80605417  0.54555987  0.59687460  1
  H  H107  1  0.79279862  0.53091237  0.56282921  1
  H  H108  1  0.78388851  0.55171276  0.57765520  1
  H  H109  1  0.80169316  0.58197724  0.40974594  1
  H  H110  1  0.78418062  0.58604920  0.44711741  1
  H  H111  1  0.78364702  0.56521328  0.42101916  1
  H  H112  1  0.76828135  0.55573933  0.47425102  1
  H  H113  1  0.76944057  0.55125926  0.52713825  1
  H  H114  1  0.74175878  0.55118766  0.50595835  1
  H  H115  1  0.70730672  0.55477339  0.50747501  1
  H  H116  1  0.71782652  0.61236674  0.52134820  1
  H  H117  1  0.75294656  0.60844085  0.52410193  1
  H  H118  1  0.68381132  0.59852783  0.51762114  1
  H  H119  1  0.68224508  0.56093426  0.47715294  1
  H  H120  1  0.82852612  0.59028101  0.42002735  1
  H  H121  1  0.85102462  0.58324919  0.43643322  1
  H  H122  1  0.85144730  0.59829472  0.37730740  1
  H  H123  1  0.87414620  0.60415596  0.32158874  1
  H  H124  1  0.86842904  0.54781273  0.28737955  1
  H  H125  1  0.84523644  0.54228777  0.34268389  1
  H  H126  1  0.89352914  0.59391552  0.26673905  1
  H  H127  1  0.88413994  0.55480997  0.23648425  1
  H  H128  1  0.40927358  0.88844147  0.74922598  1
  H  H129  1  0.45313455  0.89647127  0.73725693  1
  H  H130  1  0.46743958  0.88229947  0.68106964  1
  H  H131  1  0.46598994  0.86186931  0.62213309  1
  H  H132  1  0.40543976  0.84978193  0.64226761  1
  H  H133  1  0.40669781  0.87003903  0.70173517  1
  H  H134  1  0.46187946  0.83730576  0.58384793  1
  H  H135  1  0.45461072  0.85677201  0.55905633  1
  H  H136  1  0.42806625  0.86505610  0.47050713  1
  H  H137  1  0.45050667  0.86595418  0.49566506  1
  H  H138  1  0.42902355  0.86527455  0.52414427  1
  H  H139  1  0.45276884  0.81245181  0.59734820  1
  H  H140  1  0.46803615  0.80168163  0.56342596  1
  H  H141  1  0.44567619  0.79104270  0.57771707  1
  H  H142  1  0.41399225  0.80438907  0.40826883  1
  H  H143  1  0.40956619  0.78731721  0.44500681  1
  H  H144  1  0.43191933  0.78962942  0.42012951  1
  H  H145  1  0.44176260  0.77626543  0.47343459  1
  H  H146  1  0.44679086  0.77768294  0.52639460  1
  H  H147  1  0.44701888  0.75164111  0.50451102  1
  H  H148  1  0.44375069  0.71920991  0.50600922  1
  H  H149  1  0.38207035  0.72087483  0.51999315  1
  H  H150  1  0.38589745  0.75415712  0.52263865  1
  H  H151  1  0.39657283  0.69103088  0.51333300  1
  H  H152  1  0.43918174  0.69459175  0.48651242  1
  H  H153  1  0.40501291  0.82857080  0.41873990  1
  H  H154  1  0.41264551  0.85034453  0.43632819  1
  H  H155  1  0.39661290  0.85040184  0.37741781  1
  H  H156  1  0.39071203  0.87106648  0.32175846  1
  H  H157  1  0.44995602  0.86872300  0.28434993  1
  H  H158  1  0.45613445  0.84953378  0.34275836  1
  H  H159  1  0.40163883  0.88835022  0.26275634  1
  H  H160  1  0.44588428  0.89092480  0.25150802  1
  H  H161  1  0.44443137  0.45926289  0.47871054  1
  H  H162  1  0.41707201  0.43767496  0.46998472  1
  H  H163  1  0.38301995  0.42886464  0.47600859  1
  H  H164  1  0.37340885  0.48101185  0.52851775  1
  H  H165  1  0.40763057  0.48955020  0.52373808  1
  H  H166  1  0.34636616  0.45992937  0.52007854  1
  H  H167  1  0.43466230  0.49761030  0.50486944  1
  H  H168  1  0.35452965  0.42195314  0.48789743  1
  H  H169  1  0.51665799  0.40756781  0.46076185  1
  H  H170  1  0.52831857  0.37901920  0.43998203  1
  H  H171  1  0.54813332  0.35388412  0.44992975  1
  H  H172  1  0.57075664  0.37854404  0.56179276  1
  H  H173  1  0.55122785  0.40384109  0.55133323  1
  H  H174  1  0.58094569  0.34899607  0.54297158  1
  H  H175  1  0.53606778  0.42387967  0.53911407  1
  H  H176  1  0.56171051  0.33312785  0.46397255  1
  H  H177  1  0.56443825  0.53003658  0.55382624  1
  H  H178  1  0.59606819  0.54599653  0.57368885  1
  H  H179  1  0.62734022  0.56003268  0.55492776  1
  H  H180  1  0.61820423  0.54095766  0.43141895  1
  H  H181  1  0.58628816  0.52827441  0.44927023  1
  H  H182  1  0.64863696  0.55541194  0.44911718  1
  H  H183  1  0.56748152  0.50886826  0.47367754  1
  H  H184  1  0.65097158  0.57882205  0.52686868  1
  H  H185  1  0.45513866  0.58000569  0.53308933  1
  H  H186  1  0.43356937  0.60379789  0.54514867  1
  H  H187  1  0.42346117  0.63408934  0.53339071  1
  H  H188  1  0.47173855  0.64413388  0.45304262  1
  H  H189  1  0.48114312  0.61355680  0.46291787  1
  H  H190  1  0.45202928  0.66760548  0.46533965  1
  H  H191  1  0.49257479  0.59081937  0.48749854  1
  H  H192  1  0.41406786  0.66083859  0.51262476  1
  H  H193  1  0.04545738  0.46137234  0.92971803  1
  H  H194  1  0.04161330  0.47629035  0.84377762  1
  H  H195  1  0.07896336  0.47036646  0.86906296  1
  H  H196  1  0.06788339  0.44992175  0.88532427  1
  H  H197  1  0.08063945  0.44087005  0.74939970  1
  H  H198  1  0.09681315  0.44127795  0.83712008  1
  H  H199  1  0.05617880  0.44329742  0.81284723  1
  H  H200  1  0.06787618  0.46365050  0.79743598  1
  H  H201  1  0.54781588  0.03350521  0.90540518  1
  H  H202  1  0.51835641  0.05635918  0.86273508  1
  H  H203  1  0.55438944  0.07256528  0.88967568  1
  H  H204  1  0.56215106  0.05503938  0.85908889  1
  H  H205  1  0.55043549  0.10935487  0.79403784  1
  H  H206  1  0.57989030  0.08343098  0.82462720  1
  H  H207  1  0.54482632  0.06694329  0.79893430  1
  H  H208  1  0.53566225  0.08386306  0.82927251  1
  H  H209  1  0.94345468  0.50732375  0.10570354  1
  H  H210  1  0.96552491  0.54245066  0.13506899  1
  H  H211  1  0.92488754  0.54122856  0.11529265  1
  H  H212  1  0.92596311  0.52596529  0.15537094  1
  H  H213  1  0.91870154  0.58204505  0.21983572  1
  H  H214  1  0.90124362  0.55005394  0.16977762  1
  H  H215  1  0.94198558  0.55117442  0.19969290  1
  H  H216  1  0.94041573  0.56601464  0.15884597  1
  H  H217  1  0.49365660  0.95564706  0.12845218  1
  H  H218  1  0.45069255  0.95445099  0.10339824  1
  H  H219  1  0.47226723  0.92573256  0.14338365  1
  H  H220  1  0.46817886  0.94256124  0.17924901  1
  H  H221  1  0.41328315  0.90641298  0.20009059  1
  H  H222  1  0.45777636  0.90877291  0.19821185  1
  H  H223  1  0.43214336  0.93740039  0.16807974  1
  H  H224  1  0.43615127  0.92102878  0.13081387  1
  H  H225  1  0.50716921  0.04861432  0.12565629  1
  H  H226  1  0.55040249  0.04668049  0.10666379  1
  H  H227  1  0.53093741  0.07814012  0.14010279  1
  H  H228  1  0.53185578  0.06200106  0.17830359  1
  H  H229  1  0.59053752  0.09326720  0.20004410  1
  H  H230  1  0.54632638  0.09499297  0.19904547  1
  H  H231  1  0.56824969  0.06313299  0.17329840  1
  H  H232  1  0.56738549  0.07886036  0.13405228  1
  H  H233  1  0.02568659  0.46508147  0.12071646  1
  H  H234  1  0.06822690  0.47795691  0.10730401  1
  H  H235  1  0.05201362  0.46234886  0.18018985  1
  H  H236  1  0.05089948  0.44400223  0.14627038  1
  H  H237  1  0.11180278  0.43694286  0.18694249  1
  H  H238  1  0.07083492  0.43992656  0.21966489  1
  H  H239  1  0.08699800  0.44785468  0.13641613  1
  H  H240  1  0.08791486  0.46729288  0.16724425  1
  H  H241  1  0.94282754  0.50890243  0.89995265  1
  H  H242  1  0.96527765  0.54396273  0.87323766  1
  H  H243  1  0.92651447  0.52561870  0.84742795  1
  H  H244  1  0.92475989  0.54282884  0.88380083  1
  H  H245  1  0.92358794  0.58097103  0.78092946  1
  H  H246  1  0.90313390  0.54605012  0.81332313  1
  H  H247  1  0.94108755  0.56533852  0.83759870  1
  H  H248  1  0.94438496  0.54845703  0.80118212  1
  H  H249  1  0.49546029  0.95563052  0.87471478  1
  H  H250  1  0.45356238  0.94864517  0.90435196  1
  H  H251  1  0.46390603  0.94835193  0.81995903  1
  H  H252  1  0.47565398  0.92995472  0.83875390  1
  H  H253  1  0.41315613  0.90689142  0.80948404  1
  H  H254  1  0.45213341  0.92121992  0.77519604  1
  H  H255  1  0.44348050  0.91617297  0.86361866  1
  H  H256  1  0.43210512  0.93489636  0.84543505  1
  C  C257  1  0.99288055  0.50546925  0.13070011  1
  C  C258  1  0.00960094  0.49674928  0.13050161  1
  C  C259  1  0.01486023  0.49495844  0.08867835  1
  C  C260  1  0.98814101  0.50842148  0.08899405  1
  C  C261  1  0.03142640  0.48580899  0.07700719  1
  C  C262  1  0.03850295  0.48680970  0.03729257  1
  C  C263  1  0.05714634  0.48219155  0.02313466  1
  C  C264  1  0.05690437  0.48288920  0.98173824  1
  C  C265  1  0.03785712  0.48725665  0.96874304  1
  C  C266  1  0.03096355  0.48538869  0.92850742  1
  C  C267  1  0.01472850  0.49454824  0.91433580  1
  C  C268  1  0.00918705  0.49640847  0.87266504  1
  C  C269  1  0.99263808  0.50551542  0.87287066  1
  C  C270  1  0.98816916  0.50850471  0.91464797  1
  C  C271  1  0.97073622  0.51589775  0.92734528  1
  C  C272  1  0.96525017  0.51793998  0.96784127  1
  C  C273  1  0.94662191  0.52315339  0.98117626  1
  C  C274  1  0.94649744  0.52295623  0.02258622  1
  C  C275  1  0.96505723  0.51769211  0.03633572  1
  C  C276  1  0.97049371  0.51540549  0.07684855  1
  C  C277  1  0.49640941  0.99200370  0.87369453  1
  C  C278  1  0.50527864  0.00894777  0.87321222  1
  C  C279  1  0.50771589  0.01443133  0.91483302  1
  C  C280  1  0.49356297  0.98759960  0.91558245  1
  C  C281  1  0.51851354  0.03057672  0.92631903  1
  C  C282  1  0.51925242  0.03707293  0.96636633  1
  C  C283  1  0.52853746  0.05396358  0.98027835  1
  C  C284  1  0.52788343  0.05429293  0.02172706  1
  C  C285  1  0.51822416  0.03761434  0.03482983  1
  C  C286  1  0.51549614  0.03212677  0.07496270  1
  C  C287  1  0.50716531  0.01492885  0.08650945  1
  C  C288  1  0.50522921  0.01013418  0.12835841  1
  C  C289  1  0.49675234  0.99303912  0.12868493  1
  C  C290  1  0.49391283  0.98776796  0.08701472  1
  C  C291  1  0.48511653  0.97056915  0.07599339  1
  C  C292  1  0.48188054  0.96489595  0.03577938  1
  C  C293  1  0.47361021  0.94764917  0.02170362  1
  C  C294  1  0.47410831  0.94750017  0.98021170  1
  C  C295  1  0.48243624  0.96476382  0.96720284  1
  C  C296  1  0.48577600  0.97016336  0.92715270  1
  C  C297  1  0.47780469  0.53148819  0.51363338  1
  C  C298  1  0.47199017  0.54892777  0.51070487  1
  C  C299  1  0.48491739  0.56286370  0.49679045  1
  C  C300  1  0.50229323  0.55722479  0.48062206  1
  C  C301  1  0.50591964  0.53909469  0.47931293  1
  C  C302  1  0.46461039  0.49049540  0.50793719  1
  C  C303  1  0.52410325  0.47170914  0.48411605  1
  C  C304  1  0.53027291  0.45443638  0.48714184  1
  C  C305  1  0.51833114  0.44073384  0.50452924  1
  C  C306  1  0.50042008  0.44573131  0.51859416  1
  C  C307  1  0.49664249  0.46385427  0.52042204  1
  C  C308  1  0.53855174  0.51188477  0.49430731  1
  C  C309  1  0.10677465  0.43415879  0.25171057  1
  C  C310  1  0.11136972  0.41786295  0.26699511  1
  C  C311  1  0.12364908  0.41642044  0.30219789  1
  C  C312  1  0.12556883  0.40005498  0.32313105  1
  C  C313  1  0.13753994  0.39918595  0.35691535  1
  C  C314  1  0.14783398  0.41479511  0.37110164  1
  C  C315  1  0.14680616  0.43095485  0.35022120  1
  C  C316  1  0.13527866  0.43164819  0.31573986  1
  C  C317  1  0.15973312  0.39981388  0.43080865  1
  C  C318  1  0.17185301  0.40565673  0.46716024  1
  C  C319  1  0.19206010  0.40528219  0.46452394  1
  C  C320  1  0.20347593  0.41208362  0.49745848  1
  C  C321  1  0.19518019  0.42008700  0.53167616  1
  C  C322  1  0.17499606  0.42086075  0.53303972  1
  C  C323  1  0.16314040  0.41349882  0.50118809  1
  C  C324  1  0.14159233  0.41386077  0.50138169  1
  C  C325  1  0.20138441  0.39708598  0.42840174  1
  C  C326  1  0.20857042  0.42777600  0.56438898  1
  C  C327  1  0.22493855  0.41210587  0.49551322  1
  C  C328  1  0.25190585  0.43292251  0.48598781  1
  C  C329  1  0.26377701  0.41869507  0.49133012  1
  C  C330  1  0.28354985  0.42204442  0.49323647  1
  C  C331  1  0.29218582  0.43967634  0.48889979  1
  C  C332  1  0.27970368  0.45377184  0.48243593  1
  C  C333  1  0.25987359  0.45045041  0.48077546  1
  C  C334  1  0.31278021  0.44303433  0.49050260  1
  C  C335  1  0.32558791  0.42976070  0.49501256  1
  C  C336  1  0.16646235  0.42959062  0.56932953  1
  C  C337  1  0.15415207  0.42220278  0.63441967  1
  C  C338  1  0.14982750  0.44017915  0.63869050  1
  C  C339  1  0.13806305  0.44512549  0.66986840  1
  C  C340  1  0.13079575  0.43260923  0.69890522  1
  C  C341  1  0.13606706  0.41457876  0.69486514  1
  C  C342  1  0.14790208  0.40956016  0.66335006  1
  C  C343  1  0.11796532  0.43926461  0.72903464  1
  C  C344  1  0.10830833  0.43053429  0.76003321  1
  C  C345  1  0.57594326  0.10830574  0.24553873  1
  C  C346  1  0.59205864  0.11402279  0.26778150  1
  C  C347  1  0.59223190  0.12594602  0.30271887  1
  C  C348  1  0.60935334  0.12973990  0.32571844  1
  C  C349  1  0.60986308  0.14087047  0.35982722  1
  C  C350  1  0.59307098  0.14862991  0.37225286  1
  C  C351  1  0.57604612  0.14556251  0.34969673  1
  C  C352  1  0.57559243  0.13447877  0.31547918  1
  C  C353  1  0.60870775  0.16184477  0.43282422  1
  C  C354  1  0.60252845  0.17266437  0.46873384  1
  C  C355  1  0.60301879  0.19160817  0.46590732  1
  C  C356  1  0.59604042  0.20164924  0.49857447  1
  C  C357  1  0.58770960  0.19294759  0.53283800  1
  C  C358  1  0.58696869  0.17397674  0.53471808  1
  C  C359  1  0.59455549  0.16368609  0.50301651  1
  C  C360  1  0.59427821  0.14350013  0.50349171  1
  C  C361  1  0.61184455  0.20108920  0.42991565  1
  C  C362  1  0.57971364  0.20463275  0.56522676  1
  C  C363  1  0.59674829  0.22183797  0.49702652  1
  C  C364  1  0.57525815  0.24546081  0.48769453  1
  C  C365  1  0.59057796  0.25835751  0.49340452  1
  C  C366  1  0.58704631  0.27649164  0.49528418  1
  C  C367  1  0.56810195  0.28223038  0.49162106  1
  C  C368  1  0.55306395  0.26884884  0.48359148  1
  C  C369  1  0.55655696  0.25077100  0.48159437  1
  C  C370  1  0.56364969  0.30081430  0.49376319  1
  C  C371  1  0.57587419  0.31556620  0.50311974  1
  C  C372  1  0.57792089  0.16484905  0.57101135  1
  C  C373  1  0.58638094  0.15310971  0.63522251  1
  C  C374  1  0.56716472  0.14683127  0.63927583  1
  C  C375  1  0.56215708  0.13464337  0.66934239  1
  C  C376  1  0.57584172  0.12872041  0.69745567  1
  C  C377  1  0.59498934  0.13634621  0.69456191  1
  C  C378  1  0.60012196  0.14844517  0.66386093  1
  C  C379  1  0.56866648  0.11571222  0.72697057  1
  C  C380  1  0.57686241  0.10948166  0.76182735  1
  C  C381  1  0.89621780  0.57138172  0.75564448  1
  C  C382  1  0.88806805  0.55738309  0.73249962  1
  C  C383  1  0.87545277  0.55920181  0.69783312  1
  C  C384  1  0.87062001  0.54405107  0.67259711  1
  C  C385  1  0.85926182  0.54520298  0.63807305  1
  C  C386  1  0.85227678  0.56172385  0.62759700  1
  C  C387  1  0.85623413  0.57688435  0.65237424  1
  C  C388  1  0.86776855  0.57573061  0.68678436  1
  C  C389  1  0.83876535  0.54831148  0.56626454  1
  C  C390  1  0.82732438  0.55418538  0.53056452  1
  C  C391  1  0.80710336  0.55380300  0.53369972  1
  C  C392  1  0.79652952  0.56078025  0.50143380  1
  C  C393  1  0.80589589  0.56863748  0.46734261  1
  C  C394  1  0.82620630  0.56962487  0.46576465  1
  C  C395  1  0.83707282  0.56193383  0.49676948  1
  C  C396  1  0.85864959  0.56179696  0.49627630  1
  C  C397  1  0.79702088  0.54518207  0.56941336  1
  C  C398  1  0.79341134  0.57588305  0.43471330  1
  C  C399  1  0.77501712  0.56032297  0.50330786  1
  C  C400  1  0.74960460  0.57976602  0.51334105  1
  C  C401  1  0.73672601  0.56468861  0.50888105  1
  C  C402  1  0.71709538  0.56677177  0.50877198  1
  C  C403  1  0.70967684  0.58399420  0.51174367  1
  C  C404  1  0.72309466  0.59897161  0.51802443  1
  C  C405  1  0.74276934  0.59686558  0.51916591  1
  C  C406  1  0.68917785  0.58548766  0.50978795  1
  C  C407  1  0.67667593  0.57164067  0.49590750  1
  C  C408  1  0.83603472  0.57848293  0.42998300  1
  C  C409  1  0.84789641  0.56962366  0.36498040  1
  C  C410  1  0.85556188  0.58714639  0.35826240  1
  C  C411  1  0.86810987  0.59048327  0.32631633  1
  C  C412  1  0.87342557  0.57654531  0.29987337  1
  C  C413  1  0.86476277  0.55903689  0.30662904  1
  C  C414  1  0.85187451  0.55575930  0.33809517  1
  C  C415  1  0.88732241  0.58010492  0.26812149  1
  C  C416  1  0.89267291  0.56759789  0.24001366  1
  C  C417  1  0.42360415  0.89479934  0.75507821  1
  C  C418  1  0.43869031  0.89056979  0.73067838  1
  C  C419  1  0.43724603  0.87833610  0.69614975  1
  C  C420  1  0.45371262  0.87536762  0.67257799  1
  C  C421  1  0.45288423  0.86393858  0.63897735  1
  C  C422  1  0.43537088  0.85500696  0.62758649  1
  C  C423  1  0.41893940  0.85713400  0.65084012  1
  C  C424  1  0.41978614  0.86863374  0.68440890  1
  C  C425  1  0.44982972  0.84294772  0.56746509  1
  C  C426  1  0.44327299  0.83147810  0.53149701  1
  C  C427  1  0.44363802  0.81258863  0.53408287  1
  C  C428  1  0.43623822  0.80187021  0.50123973  1
  C  C429  1  0.42806560  0.80978440  0.46675915  1
  C  C430  1  0.42710852  0.82866881  0.46547201  1
  C  C431  1  0.43524985  0.83969259  0.49717730  1
  C  C432  1  0.43565064  0.85988717  0.49669691  1
  C  C433  1  0.45286345  0.80406567  0.56983774  1
  C  C434  1  0.42044954  0.79732367  0.43339954  1
  C  C435  1  0.43688931  0.78176901  0.50255591  1
  C  C436  1  0.41648981  0.75510943  0.51185092  1
  C  C437  1  0.43265291  0.74510370  0.50749361  1
  C  C438  1  0.43066950  0.72646248  0.50744093  1
  C  C439  1  0.41239589  0.71705091  0.51039799  1
  C  C440  1  0.39632236  0.72759572  0.51646993  1
  C  C441  1  0.39836032  0.74628337  0.51761006  1
  C  C442  1  0.41079238  0.69763475  0.50819315  1
  C  C443  1  0.42606097  0.68763200  0.49802736  1
  C  C444  1  0.41768090  0.83697680  0.42950374  1
  C  C445  1  0.42711697  0.84953012  0.36504947  1
  C  C446  1  0.40855129  0.85511976  0.35825941  1
  C  C447  1  0.40514459  0.86649624  0.32620211  1
  C  C448  1  0.41999781  0.87252932  0.29950158  1
  C  C449  1  0.43835113  0.86557304  0.30559529  1
  C  C450  1  0.44184928  0.85439859  0.33799474  1
  C  C451  1  0.41653074  0.88492423  0.26711393  1
  C  C452  1  0.43086660  0.89284886  0.24357165  1
  C  C453  1  0.44356924  0.48616534  0.50027125  1
  C  C454  1  0.43560687  0.46967636  0.49046624  1
  C  C455  1  0.41526587  0.46460449  0.49455259  1
  C  C456  1  0.40747475  0.44729440  0.48244505  1
  C  C457  1  0.38815449  0.44230706  0.48610179  1
  C  C458  1  0.37505193  0.45434460  0.50255097  1
  C  C459  1  0.38297130  0.47151496  0.51544509  1
  C  C460  1  0.40231427  0.47641924  0.51204872  1
  C  C461  1  0.35477358  0.44968671  0.50611490  1
  C  C462  1  0.34587730  0.43323012  0.49527574  1
  C  C463  1  0.52666218  0.42334099  0.51215704  1
  C  C464  1  0.52610665  0.40864256  0.48741051  1
  C  C465  1  0.53777873  0.39361594  0.49455148  1
  C  C466  1  0.53752270  0.37887478  0.46692959  1
  C  C467  1  0.54867094  0.36448814  0.47300670  1
  C  C468  1  0.56084630  0.36360280  0.50791042  1
  C  C469  1  0.56141424  0.37857694  0.53504731  1
  C  C470  1  0.55031682  0.39298354  0.52884378  1
  C  C471  1  0.57176678  0.34824380  0.51586529  1
  C  C472  1  0.57012130  0.33288338  0.49219022  1
  C  C473  1  0.55982005  0.51587686  0.49741581  1
  C  C474  1  0.56999346  0.52689612  0.52396120  1
  C  C475  1  0.58872040  0.53517899  0.51361260  1
  C  C476  1  0.60080497  0.54495149  0.54233119  1
  C  C477  1  0.61846007  0.55293760  0.53170481  1
  C  C478  1  0.62545588  0.55178871  0.49128727  1
  C  C479  1  0.61328948  0.54214806  0.46262225  1
  C  C480  1  0.59547973  0.53450872  0.47308324  1
  C  C481  1  0.64416632  0.55915273  0.47962218  1
  C  C482  1  0.65654051  0.57030613  0.50290840  1
  C  C483  1  0.48082199  0.58168408  0.49788760  1
  C  C484  1  0.46445293  0.58822542  0.51322561  1
  C  C485  1  0.45857933  0.60619746  0.50623919  1
  C  C486  1  0.44197611  0.61264904  0.52490343  1
  C  C487  1  0.43624220  0.62976589  0.51814609  1
  C  C488  1  0.44677531  0.64182081  0.49201260  1
  C  C489  1  0.46327678  0.63524140  0.47309046  1
  C  C490  1  0.46879797  0.61807336  0.47936716  1
  C  C491  1  0.44191941  0.66000396  0.48486816  1
  C  C492  1  0.42646878  0.66859522  0.49998613  1
  C  C493  1  0.04133121  0.47152196  0.90784517  1
  C  C494  1  0.04845482  0.47010689  0.86960881  1
  C  C495  1  0.06654139  0.46062105  0.86267879  1
  C  C496  1  0.09075005  0.43760638  0.77367030  1
  C  C497  1  0.08666570  0.44326906  0.81225180  1
  C  C498  1  0.06876399  0.45274869  0.81988052  1
  C  C499  1  0.53348091  0.03854410  0.89974421  1
  C  C500  1  0.53235153  0.05265492  0.87415065  1
  C  C501  1  0.55008893  0.06381053  0.86317440  1
  C  C502  1  0.56410327  0.10272905  0.79283710  1
  C  C503  1  0.56566762  0.08765707  0.81589475  1
  C  C504  1  0.54827643  0.07572812  0.82582516  1
  C  C505  1  0.95514440  0.51802447  0.10603636  1
  C  C506  1  0.95300649  0.53322019  0.12848458  1
  C  C507  1  0.93361795  0.53802414  0.14239148  1
  C  C508  1  0.90904663  0.57000496  0.21447428  1
  C  C509  1  0.91325606  0.55770727  0.18487414  1
  C  C510  1  0.93318198  0.55389364  0.17252492  1
  C  C511  1  0.48115353  0.95823185  0.10923740  1
  C  C512  1  0.46366728  0.94999246  0.11812373  1
  C  C513  1  0.46223750  0.93625470  0.15073049  1
  C  C514  1  0.42806180  0.90458647  0.21036644  1
  C  C515  1  0.44342463  0.91310401  0.19091233  1
  C  C516  1  0.44221296  0.92718990  0.15930476  1
  C  C517  1  0.51974171  0.04493551  0.10810695  1
  C  C518  1  0.53750520  0.05225793  0.11907300  1
  C  C519  1  0.53932097  0.06685254  0.15046957  1
  C  C520  1  0.57634286  0.09642972  0.21136640  1
  C  C521  1  0.55997707  0.08913688  0.19228186  1
  C  C522  1  0.55983155  0.07416580  0.16187577  1
  C  C523  1  0.03773680  0.47296495  0.10670088  1
  C  C524  1  0.05595372  0.46969032  0.11868655  1
  C  C525  1  0.05896776  0.45701584  0.15274101  1
  C  C526  1  0.10078002  0.43736973  0.21055664  1
  C  C527  1  0.08310152  0.44307433  0.19979055  1
  C  C528  1  0.08007883  0.45394557  0.16284762  1
  C  C529  1  0.95510074  0.51898274  0.89862831  1
  C  C530  1  0.95306109  0.53410113  0.87647600  1
  C  C531  1  0.93398629  0.53821598  0.85888712  1
  C  C532  1  0.91260918  0.56977556  0.78165333  1
  C  C533  1  0.91536915  0.55547454  0.80659930  1
  C  C534  1  0.93448060  0.55247586  0.82541149  1
  C  C535  1  0.48282571  0.95721480  0.89391554  1
  C  C536  1  0.46593293  0.94778284  0.88434216  1
  C  C537  1  0.46326116  0.93818787  0.84445740  1
  C  C538  1  0.42561341  0.90662300  0.78946995  1
  C  C539  1  0.44169883  0.91760397  0.79885304  1
  C  C540  1  0.44439611  0.92648504  0.83958048  1
  N  N541  1  0.00211973  0.50276715  0.06360762  1
  N  N542  1  0.02777998  0.49097834  0.00341523  1
  N  N543  1  0.00215937  0.50244551  0.93963991  1
  N  N544  1  0.97608272  0.51526641  0.00231641  1
  N  N545  1  0.49949856  0.00179993  0.94042864  1
  N  N546  1  0.51250737  0.02804668  0.00014085  1
  N  N547  1  0.50036512  0.00115199  0.06136785  1
  N  N548  1  0.48681049  0.97483798  1.00189448  1
  N  N549  1  0.49439010  0.52641385  0.49747722  1
  N  N550  1  0.50832592  0.47675199  0.50337986  1
  O  O551  1  0.47579231  0.49281024  0.47690890  1
  O  O552  1  0.47054550  0.49256868  0.54407843  1
  O  O553  1  0.52807745  0.51095300  0.52653266  1
  O  O554  1  0.53129288  0.50895530  0.45910393  1
  O  O555  1  0.15985048  0.41526446  0.40390952  1
  O  O556  1  0.16459956  0.41673992  0.60241948  1
  O  O557  1  0.23241848  0.43029773  0.48589456  1
  O  O558  1  0.59224865  0.15979288  0.40504484  1
  O  O559  1  0.59197061  0.16401609  0.60399711  1
  O  O560  1  0.57754095  0.22746132  0.48752987  1
  O  O561  1  0.84136616  0.56378035  0.59380748  1
  O  O562  1  0.83603942  0.56548307  0.39663285  1
  O  O563  1  0.76897213  0.57831841  0.51235472  1
  O  O564  1  0.43350090  0.84373828  0.59483959  1
  O  O565  1  0.43153195  0.83886420  0.39666010  1
  O  O566  1  0.41779344  0.77341278  0.51094448  1
