# generated using pymatgen
data_Be4AgH115C177N27O25
_symmetry_space_group_name_H-M   'P 1'
_cell_length_a   59.19782123
_cell_length_b   64.82607061
_cell_length_c   36.40417872
_cell_angle_alpha   90.17164130
_cell_angle_beta   90.11773159
_cell_angle_gamma   126.68615076
_symmetry_Int_Tables_number   1
_chemical_formula_structural   Be4AgH115C177N27O25
_chemical_formula_sum   'Be4 Ag1 H115 C177 N27 O25'
_cell_volume   112029.08910614
_cell_formula_units_Z   1
loop_
 _symmetry_equiv_pos_site_id
 _symmetry_equiv_pos_as_xyz
  1  'x, y, z'
loop_
 _atom_site_type_symbol
 _atom_site_label
 _atom_site_symmetry_multiplicity
 _atom_site_fract_x
 _atom_site_fract_y
 _atom_site_fract_z
 _atom_site_occupancy
  Be  Be0  1  0.73128072  0.36295690  0.54522647  1
  Be  Be1  1  0.70938340  0.39127019  0.46376491  1
  Be  Be2  1  0.70942778  0.39105506  0.54574745  1
  Be  Be3  1  0.73111084  0.36295161  0.46431095  1
  Ag  Ag4  1  0.00665928  0.01613324  0.99960033  1
  H  H5  1  0.90926450  0.36138141  0.77855213  1
  H  H6  1  0.84737372  0.31664872  0.79821322  1
  H  H7  1  0.83760636  0.28970020  0.84769068  1
  H  H8  1  0.85195096  0.27551625  0.89930701  1
  H  H9  1  0.93924581  0.33738627  0.87811751  1
  H  H10  1  0.92504265  0.35124936  0.82522838  1
  H  H11  1  0.87167480  0.26090149  0.93023057  1
  H  H12  1  0.86995361  0.28397953  0.95348533  1
  H  H13  1  0.90039961  0.32186524  0.03289314  1
  H  H14  1  0.87010465  0.29591639  0.01044242  1
  H  H15  1  0.89890613  0.32077053  0.98441355  1
  H  H16  1  0.89933025  0.25416644  0.91669729  1
  H  H17  1  0.88517073  0.22766410  0.94654892  1
  H  H18  1  0.92111850  0.24636821  0.93372872  1
  H  H19  1  0.95508869  0.29376578  0.08741634  1
  H  H20  1  0.97112445  0.28641473  0.05386172  1
  H  H21  1  0.94020430  0.26152842  0.07648191  1
  H  H22  1  0.93515531  0.23993029  0.02759913  1
  H  H23  1  0.92846425  0.23555514  0.97950495  1
  H  H24  1  0.94317238  0.21570415  0.00091993  1
  H  H25  1  0.96638085  0.19525614  0.00198359  1
  H  H26  1  0.04721472  0.26937189  0.98715717  1
  H  H27  1  0.02286168  0.28982330  0.98472678  1
  H  H28  1  0.04469923  0.22834204  0.99279486  1
  H  H29  1  0.98488934  0.18106994  0.01465364  1
  H  H30  1  0.95244125  0.32212401  0.07845214  1
  H  H31  1  0.92914807  0.32895592  0.06360307  1
  H  H32  1  0.95090049  0.34777390  0.11580009  1
  H  H33  1  0.94568282  0.37148692  0.16362126  1
  H  H34  1  0.86503416  0.30111272  0.19351999  1
  H  H35  1  0.87118730  0.27764179  0.14624734  1
  H  H36  1  0.91715308  0.37282059  0.21306170  1
  H  H37  1  0.86694206  0.31858875  0.23857322  1
  H  H38  1  0.52580617  0.22157354  0.23353909  1
  H  H39  1  0.54322507  0.18519947  0.22427385  1
  H  H40  1  0.51965541  0.15358829  0.17377622  1
  H  H41  1  0.48906095  0.13604456  0.11931358  1
  H  H42  1  0.47084103  0.19080662  0.13358302  1
  H  H43  1  0.50162229  0.20877343  0.18805613  1
  H  H44  1  0.45046674  0.11798812  0.07931808  1
  H  H45  1  0.48200172  0.14427579  0.05914827  1
  H  H46  1  0.49729035  0.18016130  0.97774449  1
  H  H47  1  0.49652146  0.15562517  0.99995154  1
  H  H48  1  0.49781399  0.17934720  0.02623358  1
  H  H49  1  0.41256607  0.10932566  0.09388953  1
  H  H50  1  0.39328425  0.08239418  0.06393245  1
  H  H51  1  0.37981025  0.09950443  0.07655560  1
  H  H52  1  0.40351089  0.14648270  0.92445016  1
  H  H53  1  0.37858230  0.13833794  0.95924534  1
  H  H54  1  0.37741295  0.11402755  0.93518073  1
  H  H55  1  0.35576668  0.09250372  0.98358913  1
  H  H56  1  0.35787375  0.08732212  0.03096478  1
  H  H57  1  0.31651940  0.06875501  0.01195835  1
  H  H58  1  0.26679239  0.05077366  0.00637463  1
  H  H59  1  0.28751272  0.12634670  0.02470424  1
  H  H60  1  0.33835157  0.14481178  0.02813560  1
  H  H61  1  0.23902383  0.09040311  0.01605468  1
  H  H62  1  0.22420685  0.03608981  0.00228429  1
  H  H63  1  0.44179334  0.17454042  0.93206202  1
  H  H64  1  0.47554562  0.18483224  0.94631095  1
  H  H65  1  0.47136781  0.20078028  0.89387497  1
  H  H66  1  0.50452097  0.22742866  0.84472410  1
  H  H67  1  0.50448186  0.16366611  0.80924497  1
  H  H68  1  0.47188428  0.13734850  0.85974367  1
  H  H69  1  0.53228088  0.23415761  0.79413447  1
  H  H70  1  0.53464998  0.19027865  0.76586246  1
  H  H71  1  0.66784084  0.53137433  0.77438530  1
  H  H72  1  0.72052927  0.53376617  0.79433967  1
  H  H73  1  0.74817406  0.55691640  0.84465779  1
  H  H74  1  0.76039565  0.58508176  0.89818771  1
  H  H75  1  0.68814444  0.58440469  0.87696658  1
  H  H76  1  0.67596363  0.55651478  0.82243198  1
  H  H77  1  0.77210140  0.61649057  0.93303377  1
  H  H78  1  0.74667820  0.58612611  0.95318414  1
  H  H79  1  0.70503835  0.56591320  0.03307364  1
  H  H80  1  0.73491700  0.57186126  0.01118897  1
  H  H81  1  0.70650688  0.56590352  0.98457205  1
  H  H82  1  0.77389101  0.64712492  0.91753888  1
  H  H83  1  0.80286703  0.66782144  0.94715223  1
  H  H84  1  0.77963659  0.67527423  0.93425881  1
  H  H85  1  0.72617058  0.64676502  0.08627124  1
  H  H86  1  0.73105311  0.66840831  0.05178728  1
  H  H87  1  0.76028468  0.67386665  0.07537189  1
  H  H88  1  0.78177781  0.69556114  0.02639250  1
  H  H89  1  0.78748545  0.69433868  0.97863160  1
  H  H90  1  0.80314521  0.72915095  0.99598198  1
  H  H91  1  0.81922895  0.77320128  -0.00566921  1
  H  H92  1  0.73275639  0.74751241  0.98657725  1
  H  H93  1  0.71689018  0.70242328  0.98282701  1
  H  H94  1  0.77654053  0.79769917  0.99156965  1
  H  H95  1  0.82636795  0.80026625  0.02456923  1
  H  H96  1  0.69752616  0.61010655  0.07580928  1
  H  H97  1  0.69433526  0.58193400  0.06456671  1
  H  H98  1  0.67398748  0.58170611  0.11811659  1
  H  H99  1  0.65149023  0.54956447  0.16746814  1
  H  H100  1  0.73201427  0.56473828  0.19206973  1
  H  H101  1  0.75451738  0.59883153  0.14519366  1
  H  H102  1  0.65494085  0.52375132  0.21699441  1
  H  H103  1  0.71698022  0.54986792  0.23963168  1
  H  H104  1  0.74645305  0.39909910  0.57462311  1
  H  H105  1  0.74668995  0.39930156  0.43560990  1
  H  H106  1  0.75351669  0.35719798  0.50464640  1
  H  H107  1  0.70909230  0.41467512  0.50509205  1
  H  H108  1  0.05602935  0.14955770  0.00437115  1
  H  H109  1  0.04761313  0.10720872  0.00491060  1
  H  H110  1  0.95797950  0.06917038  0.00528986  1
  H  H111  1  0.96669634  0.11152833  0.00486008  1
  H  H112  1  0.17013115  0.08102384  0.00518096  1
  H  H113  1  0.12683254  0.07881613  0.00521009  1
  H  H114  1  0.07605662  -0.00419655  0.00387890  1
  H  H115  1  0.11963424  -0.00176875  0.00378365  1
  H  H116  1  0.86652127  0.90184231  0.00450747  1
  H  H117  1  0.91377353  0.94419864  0.00373703  1
  H  H118  1  0.95298948  0.90550394  0.00446937  1
  H  H119  1  0.90567430  0.86343209  0.00565546  1
  C  C120  1  0.07314547  0.03469817  0.00315221  1
  C  C121  1  0.96251990  0.95258298  -0.00154348  1
  C  C122  1  0.99731420  0.06079297  0.00367708  1
  C  C123  1  0.88627974  0.34856269  0.77767511  1
  C  C124  1  0.87016158  0.32847191  0.80214228  1
  C  C125  1  0.87997365  0.32148938  0.83223697  1
  C  C126  1  0.85991016  0.30017282  0.85426754  1
  C  C127  1  0.86796661  0.29242790  0.88367213  1
  C  C128  1  0.89657168  0.30609601  0.89235248  1
  C  C129  1  0.91702630  0.32711048  0.87109067  1
  C  C130  1  0.90892223  0.33478670  0.84144708  1
  C  C131  1  0.88431622  0.27927860  0.94542026  1
  C  C132  1  0.89972209  0.27842540  0.97745805  1
  C  C133  1  0.91093457  0.26442953  0.97414142  1
  C  C134  1  0.92753750  0.26560879  0.00317490  1
  C  C135  1  0.93336220  0.28098883  0.03465597  1
  C  C136  1  0.92321468  0.29593931  0.03642923  1
  C  C137  1  0.90565902  0.29428228  0.00837854  1
  C  C138  1  0.89331245  0.30892811  0.00921101  1
  C  C139  1  0.90393079  0.24749094  0.94124454  1
  C  C140  1  0.95079885  0.28085978  0.06456852  1
  C  C141  1  0.93880703  0.25009384  0.00148456  1
  C  C142  1  0.98161272  0.25437073  0.99421568  1
  C  C143  1  0.96604836  0.22778685  0.99856736  1
  C  C144  1  0.97951500  0.21612598  0.99932476  1
  C  C145  1  0.00914248  0.23052730  0.99597951  1
  C  C146  1  0.02439956  0.25753195  0.99044671  1
  C  C147  1  0.01085808  0.26916667  0.98933909  1
  C  C148  1  0.02208966  0.21749274  0.99724634  1
  C  C149  1  0.00656053  0.19142686  0.00466509  1
  C  C150  1  0.93067019  0.31316328  0.06914255  1
  C  C151  1  0.91036787  0.31151874  0.12665335  1
  C  C152  1  0.93179483  0.33775964  0.13228889  1
  C  C153  1  0.92910796  0.35096237  0.15983493  1
  C  C154  1  0.90519639  0.33836685  0.18313377  1
  C  C155  1  0.88425579  0.31155410  0.17728578  1
  C  C156  1  0.88725484  0.29826146  0.15014034  1
  C  C157  1  0.90166161  0.35200062  0.21091624  1
  C  C158  1  0.87945621  0.33949900  0.23537992  1
  C  C159  1  0.53778498  0.21390188  0.23823639  1
  C  C160  1  0.53260665  0.19372858  0.21688788  1
  C  C161  1  0.51391780  0.18307646  0.18546082  1
  C  C162  1  0.50936588  0.16217436  0.16495157  1
  C  C163  1  0.49216401  0.15228607  0.13395602  1
  C  C164  1  0.47868871  0.16297405  0.12219195  1
  C  C165  1  0.48187713  0.18293257  0.14245569  1
  C  C166  1  0.49928443  0.19295419  0.17327771  1
  C  C167  1  0.46029668  0.13683958  0.06615420  1
  C  C168  1  0.44333138  0.13486081  0.03358901  1
  C  C169  1  0.41364646  0.11885709  0.03644100  1
  C  C170  1  0.39765948  0.11831015  0.00717394  1
  C  C171  1  0.41074757  0.13424243  0.97605713  1
  C  C172  1  0.44044121  0.15043518  0.97394457  1
  C  C173  1  0.45693851  0.15058853  0.00233344  1
  C  C174  1  0.48856008  0.16724908  0.00136947  1
  C  C175  1  0.39920921  0.10184175  0.06924285  1
  C  C176  1  0.39189737  0.13338967  0.94733094  1
  C  C177  1  0.36622442  0.10221441  0.00978022  1
  C  C178  1  0.33053722  0.10812170  0.01880341  1
  C  C179  1  0.31043544  0.08161872  0.01366177  1
  C  C180  1  0.28219631  0.07135806  0.01130432  1
  C  C181  1  0.27322077  0.08722695  0.01500607  1
  C  C182  1  0.29411726  0.11395050  0.02151530  1
  C  C183  1  0.32239541  0.12427344  0.02342102  1
  C  C184  1  0.24419069  0.07693710  0.01256757  1
  C  C185  1  0.22177267  0.05136081  0.00616725  1
  C  C186  1  0.45396893  0.16761662  0.94100850  1
  C  C187  1  0.47136198  0.16799564  0.88165154  1
  C  C188  1  0.47953781  0.19295788  0.87639658  1
  C  C189  1  0.49759693  0.20773030  0.84795500  1
  C  C190  1  0.50756188  0.19806315  0.82293396  1
  C  C191  1  0.49764487  0.17213054  0.82785285  1
  C  C192  1  0.47945077  0.15725051  0.85641479  1
  C  C193  1  0.52662970  0.21476519  0.79426701  1
  C  C194  1  0.53849163  0.20899914  0.76714900  1
  C  C195  1  0.68369633  0.52786209  0.77333540  1
  C  C196  1  0.70568374  0.53832270  0.79843385  1
  C  C197  1  0.71122404  0.55444076  0.82933923  1
  C  C198  1  0.73497407  0.56288606  0.85172164  1
  C  C199  1  0.74159963  0.57836891  0.88208775  1
  C  C200  1  0.72436008  0.58568187  0.89118536  1
  C  C201  1  0.70104074  0.57816491  0.86946392  1
  C  C202  1  0.69436304  0.56257271  0.83895741  1
  C  C203  1  0.75137112  0.60486281  0.94651397  1
  C  C204  1  0.75014893  0.61843341  0.97879350  1
  C  C205  1  0.76276691  0.64488188  0.97501830  1
  C  C206  1  0.75894755  0.65731263  0.00338832  1
  C  C207  1  0.74210839  0.64362300  0.03424216  1
  C  C208  1  0.72803446  0.61680318  0.03586193  1
  C  C209  1  0.73257161  0.60398569  0.00883759  1
  C  C210  1  0.71907567  0.57564406  0.00962445  1
  C  C211  1  0.78051469  0.65941237  0.94201362  1
  C  C212  1  0.73958721  0.65864930  0.06333497  1
  C  C213  1  0.77162248  0.68518816  1.00042676  1
  C  C214  1  0.75874086  0.71290507  0.99111949  1
  C  C215  1  0.78748584  0.73288653  0.99454059  1
  C  C216  1  0.79659441  0.75805649  0.99515100  1
  C  C217  1  0.77720059  0.76413700  0.99409761  1
  C  C218  1  0.74814037  0.74347232  0.98885167  1
  C  C219  1  0.73912271  0.71819364  0.98700904  1
  C  C220  1  0.78905430  0.79076937  0.99701699  1
  C  C221  1  0.81695401  0.80757303  0.00819994  1
  C  C222  1  0.70967199  0.60283650  0.06841221  1
  C  C223  1  0.71530890  0.59092611  0.12752300  1
  C  C224  1  0.68646253  0.57766400  0.13425465  1
  C  C225  1  0.67399040  0.55995980  0.16248271  1
  C  C226  1  0.68999179  0.55503055  0.18485370  1
  C  C227  1  0.71927341  0.56910776  0.17743138  1
  C  C228  1  0.73193904  0.58770181  0.15024769  1
  C  C229  1  0.67771873  0.53612343  0.21333739  1
  C  C230  1  0.69453623  0.53391724  0.23690898  1
  C  C231  1  0.75191189  0.36185226  0.60661741  1
  C  C232  1  0.71528726  0.41590273  0.40437721  1
  C  C233  1  0.71534471  0.41497210  0.60600190  1
  C  C234  1  0.75256782  0.36206371  0.40347550  1
  C  C235  1  0.68002966  0.34302089  0.56681383  1
  C  C236  1  0.67977012  0.34318352  0.44223985  1
  C  C237  1  0.84011446  0.35545206  0.70547073  1
  C  C238  1  0.80661887  0.35588055  0.66547615  1
  C  C239  1  0.85903285  0.35528175  0.72869395  1
  C  C240  1  0.87336494  0.35308631  0.75051432  1
  C  C241  1  0.78788463  0.35686223  0.64342472  1
  C  C242  1  0.77159527  0.35881331  0.62586350  1
  C  C243  1  0.59041993  0.25664861  0.32079371  1
  C  C244  1  0.62243872  0.28876341  0.36846965  1
  C  C245  1  0.57274542  0.23946230  0.29231783  1
  C  C246  1  0.55732523  0.22556696  0.26683415  1
  C  C247  1  0.64143705  0.30773699  0.39412417  1
  C  C248  1  0.65869112  0.32421139  0.41594558  1
  C  C249  1  0.58955085  0.25877046  0.68818851  1
  C  C250  1  0.62233206  0.28994945  0.64057739  1
  C  C251  1  0.57158498  0.24142307  0.71591094  1
  C  C252  1  0.55602127  0.22666490  0.74039120  1
  C  C253  1  0.64166267  0.30818754  0.61480948  1
  C  C254  1  0.65913780  0.32428583  0.59309594  1
  C  C255  1  0.68957017  0.48428009  0.30547907  1
  C  C256  1  0.69937809  0.45973788  0.34568808  1
  C  C257  1  0.68554049  0.49895978  0.28157093  1
  C  C258  1  0.68520418  0.51325613  0.25986857  1
  C  C259  1  0.70504026  0.44558599  0.36768945  1
  C  C260  1  0.70984508  0.43252704  0.38530266  1
  C  C261  1  0.69068573  0.48530308  0.70216930  1
  C  C262  1  0.70049595  0.45985179  0.66414258  1
  C  C263  1  0.68506592  0.49958382  0.72436390  1
  C  C264  1  0.68120366  0.51216295  0.74524825  1
  C  C265  1  0.70573854  0.44508067  0.64295320  1
  C  C266  1  0.71004860  0.43155285  0.62560386  1
  C  C267  1  0.84057764  0.35627089  0.30376989  1
  C  C268  1  0.80755680  0.35648472  0.34498045  1
  C  C269  1  0.85861022  0.35525580  0.27975671  1
  C  C270  1  0.87196481  0.35153557  0.25851064  1
  C  C271  1  0.78884206  0.35715840  0.36751098  1
  C  C272  1  0.77243136  0.35901618  0.38485963  1
  C  C273  1  0.01205934  0.13365417  0.00377299  1
  C  C274  1  0.03465076  0.13182555  0.00426433  1
  C  C275  1  0.02987812  0.10818471  0.00457255  1
  C  C276  1  0.00221309  0.08515364  0.00436931  1
  C  C277  1  0.97946793  0.08676782  0.00481036  1
  C  C278  1  0.98429087  0.11034278  0.00456123  1
  C  C279  1  0.01631461  0.15761139  0.00294349  1
  C  C280  1  0.01648936  0.17669903  0.00249356  1
  C  C281  1  0.14757719  0.03960538  0.00402310  1
  C  C282  1  0.14940582  0.06251090  0.00470156  1
  C  C283  1  0.12536071  0.06125591  0.00468643  1
  C  C284  1  0.09868958  0.03714356  0.00395641  1
  C  C285  1  0.09671778  0.01435303  0.00393170  1
  C  C286  1  0.12067524  0.01557647  0.00390711  1
  C  C287  1  0.17141348  0.03974232  0.00381699  1
  C  C288  1  0.19476532  0.04431017  0.00461972  1
  C  C289  1  0.88300547  0.87996599  0.00313839  1
  C  C290  1  0.88565982  0.90305542  0.00371839  1
  C  C291  1  0.91183714  0.92641604  0.00318070  1
  C  C292  1  0.93641733  0.92763955  0.00166206  1
  C  C293  1  0.93409616  0.90470513  0.00360630  1
  C  C294  1  0.90784047  0.88132786  0.00435487  1
  C  C295  1  0.85607315  0.85600215  0.00266851  1
  C  C296  1  0.83421959  0.83390974  0.00306211  1
  N  N297  1  0.05159809  0.03165501  0.00231753  1
  N  N298  1  0.98276143  0.97377629  0.99545849  1
  N  N299  1  -0.00686825  0.04071108  0.00292050  1
  N  N300  1  0.84511579  0.35649929  0.66856707  1
  N  N301  1  0.82745753  0.35658615  0.64749388  1
  N  N302  1  0.80109630  0.35391847  0.70253579  1
  N  N303  1  0.81874214  0.35382956  0.72343233  1
  N  N304  1  0.57955012  0.26651108  0.34136614  1
  N  N305  1  0.59613184  0.28323741  0.36636173  1
  N  N306  1  0.63251313  0.27745972  0.34955727  1
  N  N307  1  0.61584530  0.26076428  0.32461529  1
  N  N308  1  0.59654362  0.28306705  0.69110269  1
  N  N309  1  0.61349983  0.29926524  0.66624097  1
  N  N310  1  0.61419544  0.26527838  0.63657403  1
  N  N311  1  0.59719538  0.24909023  0.66149621  1
  N  N312  1  0.68077067  0.46083004  0.29205739  1
  N  N313  1  0.68596208  0.44797335  0.31300986  1
  N  N314  1  0.70737192  0.48300004  0.35958812  1
  N  N315  1  0.70216833  0.49574940  0.33831865  1
  N  N316  1  0.66819259  0.46566379  0.68248105  1
  N  N317  1  0.67331961  0.45233692  0.66242845  1
  N  N318  1  0.72317810  0.47994719  0.68346942  1
  N  N319  1  0.71788423  0.49314140  0.70351957  1
  N  N320  1  0.84661656  0.35811073  0.34038977  1
  N  N321  1  0.82925843  0.35810292  0.36219046  1
  N  N322  1  0.80128676  0.35416861  0.30804315  1
  N  N323  1  0.81877144  0.35431925  0.28655818  1
  O  O324  1  0.90569797  0.29943976  0.92097764  1
  O  O325  1  0.91142290  0.29797364  0.09898551  1
  O  O326  1  0.96913955  0.26649926  0.99450113  1
  O  O327  1  0.46115582  0.15434878  0.09249350  1
  O  O328  1  0.45511428  0.15349275  0.91069068  1
  O  O329  1  0.35855839  0.11918427  0.01931946  1
  O  O330  1  0.72999280  0.60078685  0.92081960  1
  O  O331  1  0.72811169  0.60742956  0.09891168  1
  O  O332  1  0.74953899  0.68804467  0.99164183  1
  O  O333  1  0.67917361  0.36148331  0.55844053  1
  O  O334  1  0.75000890  0.35762543  0.57215258  1
  O  O335  1  0.74024766  0.36842682  0.62666418  1
  O  O336  1  0.70935898  0.41269835  0.43851003  1
  O  O337  1  0.72500441  0.40735890  0.38444615  1
  O  O338  1  0.69638232  0.33860619  0.45467490  1
  O  O339  1  0.69663547  0.33844606  0.55448802  1
  O  O340  1  0.70942674  0.41220504  0.57179052  1
  O  O341  1  0.72500116  0.40615942  0.62539288  1
  O  O342  1  0.74986162  0.35740731  0.43777462  1
  O  O343  1  0.74155139  0.36913027  0.38306220  1
  O  O344  1  0.67908388  0.36177825  0.45046514  1
  O  O345  1  0.73508809  0.38933984  0.55317367  1
  O  O346  1  0.73490396  0.38933016  0.45648459  1
  O  O347  1  0.73878425  0.35955337  0.50475553  1
  O  O348  1  0.70698827  0.39861561  0.50488415  1
