# generated using pymatgen
data_FeH256C384(N13O6)2
_symmetry_space_group_name_H-M   'P 1'
_cell_length_a   80.47494456
_cell_length_b   82.12856690
_cell_length_c   45.49194286
_cell_angle_alpha   90.06744938
_cell_angle_beta   89.90576610
_cell_angle_gamma   90.58152117
_symmetry_Int_Tables_number   1
_chemical_formula_structural   FeH256C384(N13O6)2
_chemical_formula_sum   'Fe1 H256 C384 N26 O12'
_cell_volume   300653.43281878
_cell_formula_units_Z   1
loop_
 _symmetry_equiv_pos_site_id
 _symmetry_equiv_pos_as_xyz
  1  'x, y, z'
loop_
 _atom_site_type_symbol
 _atom_site_label
 _atom_site_symmetry_multiplicity
 _atom_site_fract_x
 _atom_site_fract_y
 _atom_site_fract_z
 _atom_site_occupancy
  Fe  Fe0  1  0.50194803  0.50107045  0.50035938  1
  H  H1  1  0.05511817  0.47954326  0.00094523  1
  H  H2  1  0.01702981  0.49760336  0.92621133  1
  H  H3  1  0.01636006  0.49691982  0.07530357  1
  H  H4  1  0.06690672  0.50389295  0.89428042  1
  H  H5  1  0.05878008  0.50628397  0.94640194  1
  H  H6  1  0.02653314  0.46422864  0.93562524  1
  H  H7  1  0.03690849  0.46064357  0.88513650  1
  H  H8  1  0.06725934  0.50496561  0.10633461  1
  H  H9  1  0.05717747  0.50779075  0.05545304  1
  H  H10  1  0.02795909  0.46368290  0.06595129  1
  H  H11  1  0.04057899  0.45950443  0.11481671  1
  H  H12  1  0.94860951  0.52159322  0.00023734  1
  H  H13  1  0.98721924  0.50362198  0.92602971  1
  H  H14  1  0.98693683  0.50426503  0.07509786  1
  H  H15  1  0.93591308  0.49749740  0.89545250  1
  H  H16  1  0.94511529  0.49501271  0.94692708  1
  H  H17  1  0.97751594  0.53681734  0.93442903  1
  H  H18  1  0.96678849  0.54009754  0.88411947  1
  H  H19  1  0.93579323  0.49685407  0.10577320  1
  H  H20  1  0.94519494  0.49424640  0.05445903  1
  H  H21  1  0.97651255  0.53693127  0.06575930  1
  H  H22  1  0.96648381  0.53930140  0.11700960  1
  H  H23  1  0.48049160  0.94801126  1.00003532  1
  H  H24  1  0.49872025  0.98610009  0.92581190  1
  H  H25  1  0.49817205  0.98608101  0.07488831  1
  H  H26  1  0.50554289  0.93621160  0.89462673  1
  H  H27  1  0.50781215  0.94481559  0.94640326  1
  H  H28  1  0.46535374  0.97608969  0.93456908  1
  H  H29  1  0.46248713  0.96599438  0.88358792  1
  H  H30  1  0.50573455  0.93615854  0.10539857  1
  H  H31  1  0.50792358  0.94468705  0.05363105  1
  H  H32  1  0.46501687  0.97535078  0.06586318  1
  H  H33  1  0.46370795  0.96653260  0.11776971  1
  H  H34  1  0.52333055  0.05327448  0.00053167  1
  H  H35  1  0.50514342  0.01536217  0.92595790  1
  H  H36  1  0.50548989  0.01508535  0.07505661  1
  H  H37  1  0.49780848  0.06459469  0.89463515  1
  H  H38  1  0.49538126  0.05586193  0.94635209  1
  H  H39  1  0.53871888  0.02570133  0.93497951  1
  H  H40  1  0.54251675  0.03679156  0.88493054  1
  H  H41  1  0.49793705  0.06461663  0.10627302  1
  H  H42  1  0.49578462  0.05633081  0.05441246  1
  H  H43  1  0.53892742  0.02598662  0.06606820  1
  H  H44  1  0.54018535  0.03474602  0.11790591  1
  H  H45  1  0.48376643  0.46873130  0.51843756  1
  H  H46  1  0.52552826  0.48071152  0.46863441  1
  H  H47  1  0.49251874  0.43956533  0.52179866  1
  H  H48  1  0.53769416  0.45310212  0.47631822  1
  H  H49  1  0.46667994  0.49602587  0.40947657  1
  H  H50  1  0.52360874  0.50939405  0.44382945  1
  H  H51  1  0.51774322  0.50856708  0.38954926  1
  H  H52  1  0.48883083  0.50223458  0.37202917  1
  H  H53  1  0.51012314  0.56213369  0.47886439  1
  H  H54  1  0.51856892  0.53284015  0.48198071  1
  H  H55  1  0.47704609  0.52124105  0.53255399  1
  H  H56  1  0.46501905  0.54890984  0.52490805  1
  H  H57  1  0.53774352  0.50535673  0.59053329  1
  H  H58  1  0.51575604  0.49902859  0.62831316  1
  H  H59  1  0.48678086  0.49267006  0.61110913  1
  H  H60  1  0.48070716  0.49200727  0.55685004  1
  H  H61  1  0.16113182  0.43671170  0.31052356  1
  H  H62  1  0.14554536  0.40288900  0.32304872  1
  H  H63  1  0.15931048  0.38760294  0.36185014  1
  H  H64  1  0.17713832  0.38630744  0.40545286  1
  H  H65  1  0.18776842  0.43772774  0.39740041  1
  H  H66  1  0.16892054  0.43926429  0.35484131  1
  H  H67  1  0.19945719  0.38897851  0.43968829  1
  H  H68  1  0.18095111  0.39586104  0.45642252  1
  H  H69  1  0.17224296  0.41909089  0.52065222  1
  H  H70  1  0.17210616  0.39967485  0.50412884  1
  H  H71  1  0.17207491  0.41737232  0.48194262  1
  H  H72  1  0.22210790  0.39925857  0.42804771  1
  H  H73  1  0.23302487  0.38525327  0.45036528  1
  H  H74  1  0.24152633  0.40475718  0.44287243  1
  H  H75  1  0.22753544  0.42963687  0.56542586  1
  H  H76  1  0.24281316  0.43378377  0.53811755  1
  H  H77  1  0.24250770  0.41492810  0.55668237  1
  H  H78  1  0.25488076  0.40460526  0.51950372  1
  H  H79  1  0.25404926  0.40021750  0.48142825  1
  H  H80  1  0.28092029  0.40250695  0.49474610  1
  H  H81  1  0.31040298  0.40967716  0.49860448  1
  H  H82  1  0.29877213  0.46043951  0.48491339  1
  H  H83  1  0.26875565  0.45320397  0.48379678  1
  H  H84  1  0.32780964  0.45266661  0.49058034  1
  H  H85  1  0.33512610  0.41629441  0.50390651  1
  H  H86  1  0.20523901  0.43836153  0.55617670  1
  H  H87  1  0.18526014  0.43133727  0.54641945  1
  H  H88  1  0.18945424  0.44692889  0.59220667  1
  H  H89  1  0.16814478  0.45282474  0.62958483  1
  H  H90  1  0.16925478  0.40257867  0.65756985  1
  H  H91  1  0.18782299  0.39623200  0.61596267  1
  H  H92  1  0.15267277  0.44575388  0.67144931  1
  H  H93  1  0.15036670  0.40942371  0.68924537  1
  H  H94  1  0.56352357  0.15041734  0.32455871  1
  H  H95  1  0.60133447  0.14381943  0.32194582  1
  H  H96  1  0.61713254  0.15616540  0.36279418  1
  H  H97  1  0.61909137  0.17410704  0.40583951  1
  H  H98  1  0.56689714  0.18471673  0.39824493  1
  H  H99  1  0.56548067  0.16902846  0.35255422  1
  H  H100  1  0.61645448  0.19654965  0.44095702  1
  H  H101  1  0.60928090  0.17838658  0.45774338  1
  H  H102  1  0.58499901  0.16952479  0.52107240  1
  H  H103  1  0.60488222  0.16964597  0.50481350  1
  H  H104  1  0.58693327  0.16946970  0.48239554  1
  H  H105  1  0.60529269  0.21855743  0.42873154  1
  H  H106  1  0.61957543  0.22968392  0.45089446  1
  H  H107  1  0.59963556  0.23753893  0.44343453  1
  H  H108  1  0.57419923  0.22371506  0.56597033  1
  H  H109  1  0.57024577  0.23863072  0.53866832  1
  H  H110  1  0.58940556  0.23851414  0.55745014  1
  H  H111  1  0.59981872  0.25083313  0.52022641  1
  H  H112  1  0.60440648  0.25012450  0.48219872  1
  H  H113  1  0.60217523  0.27685388  0.49522772  1
  H  H114  1  0.59500503  0.30563809  0.49938044  1
  H  H115  1  0.54323667  0.29351052  0.48518471  1
  H  H116  1  0.55041528  0.26422800  0.48414128  1
  H  H117  1  0.55114179  0.32210005  0.49093425  1
  H  H118  1  0.58812643  0.33003487  0.50496767  1
  H  H119  1  0.56571969  0.20157939  0.55719189  1
  H  H120  1  0.57277299  0.18212385  0.54718897  1
  H  H121  1  0.55700113  0.18578453  0.59286641  1
  H  H122  1  0.55099294  0.16441333  0.62946128  1
  H  H123  1  0.60218624  0.16655353  0.65790817  1
  H  H124  1  0.60870270  0.18501930  0.61664456  1
  H  H125  1  0.55764766  0.15108578  0.67327048  1
  H  H126  1  0.59428262  0.15032265  0.69358229  1
  H  H127  1  0.84979636  0.58743326  0.68754097  1
  H  H128  1  0.85617709  0.55097119  0.67416453  1
  H  H129  1  0.84295728  0.53868372  0.63411825  1
  H  H130  1  0.82408893  0.53901501  0.59174009  1
  H  H131  1  0.81650110  0.59047963  0.60467482  1
  H  H132  1  0.83435307  0.58991887  0.64871455  1
  H  H133  1  0.80328211  0.54259125  0.55925549  1
  H  H134  1  0.82200304  0.54968637  0.54309452  1
  H  H135  1  0.83146036  0.57239961  0.47878160  1
  H  H136  1  0.83086883  0.55318213  0.49593867  1
  H  H137  1  0.83155369  0.57109561  0.51755693  1
  H  H138  1  0.78112661  0.55296586  0.57146116  1
  H  H139  1  0.77044273  0.53891646  0.54849055  1
  H  H140  1  0.76166189  0.55805943  0.55689765  1
  H  H141  1  0.77645578  0.58347898  0.43406527  1
  H  H142  1  0.76075412  0.58749630  0.46068150  1
  H  H143  1  0.76147389  0.56846209  0.44270476  1
  H  H144  1  0.74843234  0.55882548  0.48123485  1
  H  H145  1  0.74940263  0.55525314  0.51961724  1
  H  H146  1  0.72442034  0.55443282  0.50880381  1
  H  H147  1  0.69460680  0.55746691  0.50384567  1
  H  H148  1  0.70009458  0.60966148  0.51542816  1
  H  H149  1  0.73065729  0.60647154  0.51625861  1
  H  H150  1  0.67087528  0.59681110  0.51110238  1
  H  H151  1  0.67259352  0.56087716  0.49022168  1
  H  H152  1  0.79910736  0.59286410  0.44428605  1
  H  H153  1  0.81880281  0.58532100  0.45380879  1
  H  H154  1  0.81646597  0.60081589  0.40714899  1
  H  H155  1  0.83749536  0.60538548  0.36860738  1
  H  H156  1  0.83562980  0.55423885  0.34664724  1
  H  H157  1  0.81489075  0.54965328  0.38611575  1
  H  H158  1  0.85651635  0.59369917  0.32870972  1
  H  H159  1  0.83878120  0.56395307  0.30138393  1
  H  H160  1  0.41317730  0.85055823  0.68851305  1
  H  H161  1  0.44680856  0.86236252  0.66345449  1
  H  H162  1  0.46236955  0.84249189  0.63532851  1
  H  H163  1  0.46207620  0.82429539  0.59248914  1
  H  H164  1  0.40943452  0.81632155  0.60421070  1
  H  H165  1  0.40974879  0.83427727  0.64783173  1
  H  H166  1  0.45855735  0.80449133  0.55878180  1
  H  H167  1  0.45106268  0.82266504  0.54300696  1
  H  H168  1  0.42850933  0.83144656  0.47811979  1
  H  H169  1  0.44799604  0.83111172  0.49562911  1
  H  H170  1  0.42959864  0.83175555  0.51690924  1
  H  H171  1  0.44790917  0.78252072  0.57101550  1
  H  H172  1  0.46225799  0.77229729  0.54803428  1
  H  H173  1  0.44271919  0.76333308  0.55638054  1
  H  H174  1  0.41713548  0.77746089  0.43342980  1
  H  H175  1  0.41278566  0.76190087  0.45979414  1
  H  H176  1  0.43233169  0.76297484  0.44224965  1
  H  H177  1  0.44222125  0.75033694  0.48066470  1
  H  H178  1  0.44568568  0.75131748  0.51908351  1
  H  H179  1  0.44674135  0.72656141  0.50791219  1
  H  H180  1  0.44363973  0.69721601  0.50368871  1
  H  H181  1  0.39037517  0.70163549  0.51447697  1
  H  H182  1  0.39364524  0.73163554  0.51533157  1
  H  H183  1  0.40350144  0.67321074  0.51057884  1
  H  H184  1  0.44000408  0.67534853  0.48889136  1
  H  H185  1  0.40648978  0.79965122  0.44521606  1
  H  H186  1  0.41479829  0.81895064  0.45422264  1
  H  H187  1  0.39851606  0.81703223  0.40600406  1
  H  H188  1  0.39506963  0.83761199  0.36727022  1
  H  H189  1  0.44638501  0.83096314  0.34215925  1
  H  H190  1  0.45089745  0.81487449  0.38698435  1
  H  H191  1  0.40637164  0.85284354  0.32360908  1
  H  H192  1  0.44476295  0.85330969  0.32355123  1
  H  H193  1  0.10687672  0.47503986  0.84455346  1
  H  H194  1  0.08776333  0.48614579  0.88208670  1
  H  H195  1  0.04636623  0.46260358  0.83860117  1
  H  H196  1  0.06586721  0.44932569  0.80439364  1
  H  H197  1  0.13955348  0.45359228  0.77491181  1
  H  H198  1  0.15767772  0.44253332  0.73615914  1
  H  H199  1  0.11570813  0.41630821  0.69967714  1
  H  H200  1  0.09758932  0.42820013  0.73754163  1
  H  H201  1  0.52199698  0.07638442  0.79364478  1
  H  H202  1  0.50918255  0.05886401  0.83193548  1
  H  H203  1  0.54824999  0.07270362  0.89203836  1
  H  H204  1  0.56071845  0.09069327  0.85392171  1
  H  H205  1  0.54349913  0.10779420  0.72559211  1
  H  H206  1  0.55605973  0.12466743  0.68661110  1
  H  H207  1  0.59357356  0.14151232  0.74757644  1
  H  H208  1  0.58184568  0.12329379  0.78553927  1
  H  H209  1  0.92589251  0.56404466  0.16351513  1
  H  H210  1  0.94220042  0.55181065  0.12295879  1
  H  H211  1  0.92731175  0.50382260  0.15203054  1
  H  H212  1  0.90892440  0.51617619  0.18911581  1
  H  H213  1  0.89146479  0.58586571  0.23886076  1
  H  H214  1  0.87217226  0.59333452  0.27866784  1
  H  H215  1  0.86202024  0.54245781  0.29470861  1
  H  H216  1  0.88061104  0.53507565  0.25362330  1
  H  H217  1  0.43790821  0.93003000  0.17097321  1
  H  H218  1  0.44983578  0.94557931  0.12935298  1
  H  H219  1  0.49729279  0.92285993  0.14408708  1
  H  H220  1  0.48435936  0.90505110  0.18132876  1
  H  H221  1  0.41506569  0.89466830  0.24634423  1
  H  H222  1  0.40836443  0.87504576  0.28570558  1
  H  H223  1  0.45691543  0.85403166  0.27597924  1
  H  H224  1  0.46447100  0.87531159  0.23983477  1
  H  H225  1  0.51869717  0.09792534  0.17825902  1
  H  H226  1  0.50690654  0.08015806  0.14001491  1
  H  H227  1  0.55325988  0.05404871  0.13564926  1
  H  H228  1  0.56398111  0.07042494  0.17700405  1
  H  H229  1  0.54003726  0.12915397  0.24171186  1
  H  H230  1  0.54973168  0.14895192  0.27889365  1
  H  H231  1  0.59557342  0.12255157  0.28747833  1
  H  H232  1  0.58644312  0.10382501  0.24835819  1
  H  H233  1  0.07616170  0.47884277  0.20930761  1
  H  H234  1  0.05897145  0.49138257  0.17054048  1
  H  H235  1  0.07862630  0.45745579  0.10730763  1
  H  H236  1  0.09644279  0.44541707  0.14598015  1
  H  H237  1  0.10643120  0.45697777  0.27761823  1
  H  H238  1  0.12428626  0.44619559  0.31694110  1
  H  H239  1  0.14622254  0.41286702  0.25519448  1
  H  H240  1  0.12831645  0.42367007  0.21608067  1
  H  H241  1  0.93960240  0.54567538  0.79751104  1
  H  H242  1  0.95809394  0.53319866  0.83434226  1
  H  H243  1  0.91534769  0.52065813  0.88740176  1
  H  H244  1  0.89684673  0.53270670  0.84992929  1
  H  H245  1  0.90740250  0.56717024  0.72950877  1
  H  H246  1  0.88883594  0.57831187  0.69164190  1
  H  H247  1  0.84628805  0.56572943  0.74531316  1
  H  H248  1  0.86501958  0.55463824  0.78301584  1
  H  H249  1  0.48682812  0.91227250  0.80799977  1
  H  H250  1  0.49910846  0.93053945  0.84543505  1
  H  H251  1  0.45012162  0.93998834  0.87982533  1
  H  H252  1  0.43773958  0.92283704  0.84043491  1
  H  H253  1  0.46619868  0.88153202  0.74343707  1
  H  H254  1  0.45670270  0.86046917  0.70831823  1
  H  H255  1  0.40573891  0.87091258  0.73043095  1
  H  H256  1  0.41545738  0.88929523  0.76993553  1
  C  C257  1  0.96912280  0.51327669  0.97391008  1
  C  C258  1  0.96886921  0.51313642  0.02690984  1
  C  C259  1  0.98556997  0.50694071  0.97335008  1
  C  C260  1  0.98539055  0.50695812  0.02767866  1
  C  C261  1  0.99390305  0.50307656  0.94679935  1
  C  C262  1  0.99361334  0.50324925  0.05434589  1
  C  C263  1  0.96089089  0.51611358  0.00034877  1
  C  C264  1  0.99377418  0.50382635  0.00057170  1
  C  C265  1  0.05550396  0.47998468  0.88860897  1
  C  C266  1  0.05691142  0.48056369  0.11160059  1
  C  C267  1  0.05986815  0.49406215  0.90473036  1
  C  C268  1  0.05975020  0.49525326  0.09657184  1
  C  C269  1  0.05417751  0.49607956  0.93323662  1
  C  C270  1  0.05347888  0.49718975  0.06842834  1
  C  C271  1  0.04252999  0.48502834  0.94503212  1
  C  C272  1  0.04256159  0.48545485  0.05655527  1
  C  C273  1  0.03594266  0.47259780  0.92694370  1
  C  C274  1  0.03729057  0.47227612  0.07412640  1
  C  C275  1  0.04212614  0.47029146  0.89888375  1
  C  C276  1  0.04468387  0.46967508  0.10111901  1
  C  C277  1  0.03484531  0.48799805  0.97430275  1
  C  C278  1  0.03473425  0.48814772  0.02730029  1
  C  C279  1  0.01841136  0.49436635  0.97355819  1
  C  C280  1  0.01824106  0.49440011  0.02788069  1
  C  C281  1  0.01023426  0.49820082  0.94690359  1
  C  C282  1  0.00984198  0.49804770  0.05445111  1
  C  C283  1  0.04285411  0.48506538  0.00086103  1
  C  C284  1  0.01003618  0.49751108  0.00066761  1
  C  C285  1  0.94821181  0.52083993  0.88852692  1
  C  C286  1  0.94715161  0.52088426  0.11172191  1
  C  C287  1  0.94354123  0.50711070  0.90526927  1
  C  C288  1  0.94356672  0.50639433  0.09614031  1
  C  C289  1  0.94959107  0.50515201  0.93349504  1
  C  C290  1  0.94950148  0.50451709  0.06775349  1
  C  C291  1  0.96148856  0.51614940  0.94464686  1
  C  C292  1  0.96098144  0.51582628  0.05610964  1
  C  C293  1  0.96805772  0.52838952  0.92613031  1
  C  C294  1  0.96718776  0.52839704  0.07423643  1
  C  C295  1  0.96170065  0.53051834  0.89817762  1
  C  C296  1  0.96057183  0.53066000  0.10199441  1
  C  C297  1  0.51459281  0.03318516  0.97403656  1
  C  C298  1  0.51469365  0.03316963  0.02703048  1
  C  C299  1  0.50821688  0.01691349  0.97333719  1
  C  C300  1  0.50829965  0.01687879  0.02765556  1
  C  C301  1  0.50438113  0.00876155  0.94667448  1
  C  C302  1  0.50448144  0.00861873  0.05420917  1
  C  C303  1  0.51767712  0.04115492  0.00052585  1
  C  C304  1  0.50506332  0.00870392  0.00047867  1
  C  C305  1  0.48139939  0.94750905  0.88843758  1
  C  C306  1  0.48109416  0.94665105  0.11137867  1
  C  C307  1  0.49596784  0.94387052  0.90421445  1
  C  C308  1  0.49578690  0.94321412  0.09558217  1
  C  C309  1  0.49767988  0.94933459  0.93286014  1
  C  C310  1  0.49764235  0.94897467  0.06716154  1
  C  C311  1  0.48636058  0.96061685  0.94442110  1
  C  C312  1  0.48631450  0.96029089  0.05584813  1
  C  C313  1  0.47382744  0.96688100  0.92616015  1
  C  C314  1  0.47373729  0.96638650  0.07428108  1
  C  C315  1  0.47141492  0.96040416  0.89841836  1
  C  C316  1  0.47163875  0.96011384  0.10226299  1
  C  C317  1  0.48913257  0.96818972  0.97372788  1
  C  C318  1  0.48909519  0.96807696  0.02671602  1
  C  C319  1  0.49547644  0.98447704  0.97316854  1
  C  C320  1  0.49540273  0.98439473  0.02748486  1
  C  C321  1  0.49937048  0.99267579  0.94658866  1
  C  C322  1  0.49919246  0.99260074  0.05412034  1
  C  C323  1  0.48612748  0.96013712  0.00015063  1
  C  C324  1  0.49862575  0.99263511  0.00039016  1
  C  C325  1  0.52223381  0.05387895  0.88885617  1
  C  C326  1  0.52291206  0.05478119  0.11167155  1
  C  C327  1  0.50752984  0.05719112  0.90436413  1
  C  C328  1  0.50812296  0.05802007  0.09608390  1
  C  C329  1  0.50574327  0.05163975  0.93296071  1
  C  C330  1  0.50617264  0.05215919  0.06773199  1
  C  C331  1  0.51735666  0.04076430  0.94470743  1
  C  C332  1  0.51754760  0.04092988  0.05620940  1
  C  C333  1  0.53019064  0.03484562  0.92664580  1
  C  C334  1  0.53020385  0.03496619  0.07450566  1
  C  C335  1  0.53276680  0.04156086  0.89913620  1
  C  C336  1  0.53232032  0.04127043  0.10250240  1
  C  C337  1  0.51649893  0.44435980  0.50178152  1
  C  C338  1  0.50063576  0.44877003  0.51190058  1
  C  C339  1  0.49554480  0.46469695  0.50923420  1
  C  C340  1  0.51920837  0.47151536  0.48191010  1
  C  C341  1  0.52564099  0.45620876  0.48570285  1
  C  C342  1  0.47205533  0.49588114  0.46948413  1
  C  C343  1  0.45244703  0.48778402  0.49586082  1
  C  C344  1  0.48348103  0.49949826  0.44571589  1
  C  C345  1  0.47931292  0.49896151  0.41621291  1
  C  C346  1  0.49169297  0.50239151  0.39543145  1
  C  C347  1  0.50781382  0.50604450  0.40524457  1
  C  C348  1  0.51115948  0.50653880  0.43535844  1
  C  C349  1  0.48622817  0.55761136  0.49945595  1
  C  C350  1  0.50195785  0.55302350  0.48890261  1
  C  C351  1  0.50694327  0.53704983  0.49147885  1
  C  C352  1  0.48341032  0.53039823  0.51922965  1
  C  C353  1  0.47704335  0.54574955  0.51545034  1
  C  C354  1  0.53213970  0.50612317  0.53097911  1
  C  C355  1  0.55206881  0.51407467  0.50523075  1
  C  C356  1  0.52069361  0.50233368  0.55461484  1
  C  C357  1  0.52504230  0.50255097  0.58404045  1
  C  C358  1  0.51277899  0.49898615  0.60495725  1
  C  C359  1  0.49662200  0.49533455  0.59531451  1
  C  C360  1  0.49313258  0.49502599  0.56524660  1
  C  C361  1  0.15138918  0.42725792  0.31022163  1
  C  C362  1  0.15275788  0.41392041  0.32766199  1
  C  C363  1  0.16323834  0.41333683  0.35367951  1
  C  C364  1  0.16548709  0.39869279  0.36953021  1
  C  C365  1  0.17533282  0.39801014  0.39463463  1
  C  C366  1  0.18302517  0.41221762  0.40527618  1
  C  C367  1  0.18128088  0.42680538  0.38973193  1
  C  C368  1  0.17112009  0.42749529  0.36504029  1
  C  C369  1  0.19371091  0.39955453  0.45048834  1
  C  C370  1  0.20385217  0.40526624  0.47655197  1
  C  C371  1  0.22139433  0.40467541  0.47477377  1
  C  C372  1  0.23097306  0.40983813  0.49911838  1
  C  C373  1  0.22330683  0.41741936  0.52358054  1
  C  C374  1  0.20579272  0.41870372  0.52450670  1
  C  C375  1  0.19592567  0.41208501  0.50155517  1
  C  C376  1  0.17725560  0.41213258  0.50219546  1
  C  C377  1  0.22985718  0.39822483  0.44773986  1
  C  C378  1  0.23444794  0.42430146  0.54710719  1
  C  C379  1  0.24965795  0.40872036  0.49839038  1
  C  C380  1  0.27287817  0.42765163  0.49147332  1
  C  C381  1  0.28464167  0.41531388  0.49413526  1
  C  C382  1  0.30142245  0.41935270  0.49531738  1
  C  C383  1  0.30705275  0.43570936  0.49236911  1
  C  C384  1  0.29482817  0.44781351  0.48788188  1
  C  C385  1  0.27804116  0.44383490  0.48738031  1
  C  C386  1  0.32439068  0.43986225  0.49334044  1
  C  C387  1  0.33724840  0.42895010  0.49749234  1
  C  C388  1  0.19803527  0.42730099  0.55043431  1
  C  C389  1  0.18830054  0.42081374  0.59938837  1
  C  C390  1  0.18388742  0.43697487  0.60478807  1
  C  C391  1  0.17280768  0.44046872  0.62731023  1
  C  C392  1  0.16713237  0.42836943  0.64713953  1
  C  C393  1  0.17303751  0.41232998  0.64268995  1
  C  C394  1  0.18352707  0.40865596  0.61923956  1
  C  C395  1  0.15602072  0.43289785  0.67099575  1
  C  C396  1  0.14874126  0.42260718  0.69065330  1
  C  C397  1  0.57514428  0.14599802  0.31521822  1
  C  C398  1  0.58972451  0.14916498  0.32949699  1
  C  C399  1  0.59088473  0.15995183  0.35490379  1
  C  C400  1  0.60597463  0.16230611  0.37047014  1
  C  C401  1  0.60706041  0.17228093  0.39523278  1
  C  C402  1  0.59278312  0.17990914  0.40603627  1
  C  C403  1  0.57789890  0.17839443  0.39036584  1
  C  C404  1  0.57704619  0.16898623  0.36495208  1
  C  C405  1  0.60556366  0.19078615  0.45156530  1
  C  C406  1  0.59946373  0.20074139  0.47739607  1
  C  C407  1  0.59982744  0.21795864  0.47546493  1
  C  C408  1  0.59437352  0.22735860  0.49962882  1
  C  C409  1  0.58680402  0.21967898  0.52421911  1
  C  C410  1  0.58563862  0.20247060  0.52525858  1
  C  C411  1  0.59241880  0.19288052  0.50232931  1
  C  C412  1  0.59223026  0.17457078  0.50278781  1
  C  C413  1  0.60634458  0.22627556  0.44833391  1
  C  C414  1  0.57979303  0.23051883  0.54773287  1
  C  C415  1  0.59559355  0.24574448  0.49901121  1
  C  C416  1  0.57651596  0.26852902  0.49204298  1
  C  C417  1  0.58912014  0.28029830  0.49470282  1
  C  C418  1  0.58507350  0.29671209  0.49598793  1
  C  C419  1  0.56843732  0.30204712  0.49298686  1
  C  C420  1  0.55609276  0.28984737  0.48831007  1
  C  C421  1  0.56005808  0.27342631  0.48783801  1
  C  C422  1  0.56418693  0.31901525  0.49400971  1
  C  C423  1  0.57521892  0.33188226  0.49854204  1
  C  C424  1  0.57695689  0.19470385  0.55127482  1
  C  C425  1  0.58363476  0.18510822  0.60002238  1
  C  C426  1  0.56714695  0.18043044  0.60530512  1
  C  C427  1  0.56356552  0.16937257  0.62756498  1
  C  C428  1  0.57583486  0.16411714  0.64758169  1
  C  C429  1  0.59223086  0.17015713  0.64313780  1
  C  C430  1  0.59601400  0.18056859  0.61982198  1
  C  C431  1  0.57102172  0.15321017  0.67140475  1
  C  C432  1  0.58117091  0.14685109  0.69239577  1
  C  C433  1  0.85487614  0.57518114  0.68957088  1
  C  C434  1  0.85093035  0.56301545  0.67053633  1
  C  C435  1  0.84017907  0.56414456  0.64502855  1
  C  C436  1  0.83709649  0.55007005  0.62783217  1
  C  C437  1  0.82685632  0.55036097  0.60331245  1
  C  C438  1  0.81993442  0.56509935  0.59434004  1
  C  C439  1  0.82240188  0.57916246  0.61126856  1
  C  C440  1  0.83242395  0.57875032  0.63616133  1
  C  C441  1  0.80925249  0.55327024  0.54884157  1
  C  C442  1  0.79934302  0.55920190  0.52292087  1
  C  C443  1  0.78180099  0.55897903  0.52499765  1
  C  C444  1  0.77230169  0.56472002  0.50114678  1
  C  C445  1  0.78023829  0.57181809  0.47636752  1
  C  C446  1  0.79779784  0.57297928  0.47545703  1
  C  C447  1  0.80749759  0.56604143  0.49809445  1
  C  C448  1  0.82617395  0.56573666  0.49744458  1
  C  C449  1  0.77338846  0.55196194  0.55171026  1
  C  C450  1  0.76933070  0.57818408  0.45228446  1
  C  C451  1  0.75361270  0.56351806  0.50209299  1
  C  C452  1  0.72963283  0.58043887  0.50939944  1
  C  C453  1  0.71931942  0.56668084  0.50800346  1
  C  C454  1  0.70219668  0.56845575  0.50632552  1
  C  C455  1  0.69464439  0.58395871  0.50817638  1
  C  C456  1  0.70541417  0.59758425  0.51273621  1
  C  C457  1  0.72258808  0.59586081  0.51310212  1
  C  C458  1  0.67683182  0.58520792  0.50653239  1
  C  C459  1  0.66694706  0.57196816  0.49905008  1
  C  C460  1  0.80584982  0.58162080  0.44972942  1
  C  C461  1  0.81569448  0.57458697  0.40096335  1
  C  C462  1  0.82130118  0.59044808  0.39492654  1
  C  C463  1  0.83247490  0.59314754  0.37204811  1
  C  C464  1  0.83729886  0.58040432  0.35296436  1
  C  C465  1  0.83105825  0.56457970  0.35920356  1
  C  C466  1  0.81993413  0.56182886  0.38214801  1
  C  C467  1  0.84861439  0.58281879  0.32843263  1
  C  C468  1  0.84970268  0.57157218  0.30644245  1
  C  C469  1  0.42567733  0.85582346  0.68882199  1
  C  C470  1  0.43662650  0.85357118  0.66624411  1
  C  C471  1  0.43584325  0.84116061  0.64341037  1
  C  C472  1  0.45055266  0.83739738  0.62778921  1
  C  C473  1  0.45041568  0.82706356  0.60360036  1
  C  C474  1  0.43537860  0.82015911  0.59420093  1
  C  C475  1  0.42094483  0.82238155  0.61089139  1
  C  C476  1  0.42116885  0.83262875  0.63531577  1
  C  C477  1  0.44756153  0.81004421  0.54858825  1
  C  C478  1  0.44155540  0.80022693  0.52257730  1
  C  C479  1  0.44179220  0.78303191  0.52455871  1
  C  C480  1  0.43594576  0.77357054  0.50069124  1
  C  C481  1  0.42869582  0.78125468  0.47599347  1
  C  C482  1  0.42734305  0.79844336  0.47530484  1
  C  C483  1  0.43458960  0.80809710  0.49779570  1
  C  C484  1  0.43512143  0.82640960  0.49697304  1
  C  C485  1  0.44894695  0.77494541  0.55124613  1
  C  C486  1  0.42235547  0.77049540  0.45166790  1
  C  C487  1  0.43728901  0.75525307  0.50150129  1
  C  C488  1  0.42020173  0.73117094  0.50852595  1
  C  C489  1  0.43423956  0.72132135  0.50720904  1
  C  C490  1  0.43243258  0.70448218  0.50576737  1
  C  C491  1  0.41662031  0.69675172  0.50747610  1
  C  C492  1  0.40271566  0.70706189  0.51185088  1
  C  C493  1  0.40447574  0.72393465  0.51219610  1
  C  C494  1  0.41535969  0.67924241  0.50599011  1
  C  C495  1  0.42882325  0.66973443  0.49851195  1
  C  C496  1  0.41820866  0.80623892  0.45001400  1
  C  C497  1  0.42531932  0.81584673  0.40075835  1
  C  C498  1  0.40937912  0.82142022  0.39388160  1
  C  C499  1  0.40732574  0.83245733  0.37099538  1
  C  C500  1  0.42075532  0.83723287  0.35261000  1
  C  C501  1  0.43620196  0.82957447  0.35777894  1
  C  C502  1  0.43859732  0.81962478  0.38213186  1
  C  C503  1  0.41894216  0.84893975  0.32885775  1
  C  C504  1  0.43242451  0.85492289  0.31402059  1
  C  C505  1  0.40903505  0.46356593  0.50341738  1
  C  C506  1  0.38316186  0.44770008  0.49924392  1
  C  C507  1  0.42400853  0.47262559  0.50461026  1
  C  C508  1  0.43718527  0.48017932  0.50366524  1
  C  C509  1  0.36804546  0.43912707  0.49685873  1
  C  C510  1  0.35368613  0.43394264  0.49657770  1
  C  C511  1  0.54008215  0.40160392  0.50431743  1
  C  C512  1  0.55650610  0.37672871  0.49913831  1
  C  C513  1  0.53067833  0.41592222  0.50652683  1
  C  C514  1  0.52283495  0.42860555  0.50623723  1
  C  C515  1  0.56522048  0.36202554  0.49726600  1
  C  C516  1  0.57017811  0.34793114  0.49750184  1
  C  C517  1  0.59549332  0.53869535  0.50048018  1
  C  C518  1  0.62104122  0.55542736  0.50158084  1
  C  C519  1  0.58070473  0.52928730  0.49866432  1
  C  C520  1  0.56758213  0.52160600  0.49839281  1
  C  C521  1  0.63598261  0.56463404  0.50106916  1
  C  C522  1  0.64966590  0.57145596  0.50095624  1
  C  C523  1  0.46246767  0.60032999  0.49846304  1
  C  C524  1  0.44548814  0.62498477  0.50127120  1
  C  C525  1  0.47205772  0.58611521  0.49607642  1
  C  C526  1  0.47999196  0.57348266  0.49563092  1
  C  C527  1  0.43617323  0.63948418  0.50124535  1
  C  C528  1  0.42938755  0.65283537  0.50103522  1
  C  C529  1  0.08771563  0.46140172  0.82165747  1
  C  C530  1  0.09363562  0.47214418  0.84372330  1
  C  C531  1  0.08292234  0.47861609  0.86427208  1
  C  C532  1  0.06580493  0.47475748  0.86366768  1
  C  C533  1  0.05968929  0.46456004  0.84110529  1
  C  C534  1  0.07046948  0.45776715  0.82107398  1
  C  C535  1  0.09827135  0.45450718  0.80030181  1
  C  C536  1  0.10715199  0.44852937  0.78130658  1
  C  C537  1  0.11725074  0.44172490  0.75921290  1
  C  C538  1  0.13445213  0.44552860  0.75806896  1
  C  C539  1  0.14448589  0.43941466  0.73622924  1
  C  C540  1  0.13813116  0.42858413  0.71459420  1
  C  C541  1  0.12104969  0.42436045  0.71629526  1
  C  C542  1  0.11085236  0.43103677  0.73738771  1
  C  C543  1  0.54214429  0.08488091  0.82112800  1
  C  C544  1  0.52755428  0.07561444  0.81541047  1
  C  C545  1  0.52040309  0.06586837  0.83680561  1
  C  C546  1  0.52818905  0.06440613  0.86420498  1
  C  C547  1  0.54280731  0.07335710  0.87017258  1
  C  C548  1  0.54955069  0.08355194  0.84920193  1
  C  C549  1  0.54906393  0.09515633  0.79940441  1
  C  C550  1  0.55498169  0.10406627  0.78040472  1
  C  C551  1  0.56174246  0.11428643  0.75848855  1
  C  C552  1  0.55453020  0.11519559  0.73013623  1
  C  C553  1  0.56119401  0.12515563  0.70872559  1
  C  C554  1  0.57506165  0.13551795  0.71453602  1
  C  C555  1  0.58267437  0.13405491  0.74253841  1
  C  C556  1  0.57615476  0.12392433  0.76383787  1
  C  C557  1  0.91623078  0.54105685  0.17912422  1
  C  C558  1  0.92618835  0.55087619  0.16051654  1
  C  C559  1  0.93589324  0.54404568  0.13890958  1
  C  C560  1  0.93678502  0.52698697  0.13586320  1
  C  C561  1  0.92670277  0.51702316  0.15391557  1
  C  C562  1  0.91662474  0.52392336  0.17508313  1
  C  C563  1  0.90635876  0.54871797  0.20068292  1
  C  C564  1  0.89765056  0.55477856  0.21983267  1
  C  C565  1  0.88706259  0.55993700  0.24271281  1
  C  C566  1  0.88465656  0.57641684  0.25080133  1
  C  C567  1  0.87364708  0.58054825  0.27291879  1
  C  C568  1  0.86392956  0.56844675  0.28727214  1
  C  C569  1  0.86766103  0.55195229  0.28116713  1
  C  C570  1  0.87853629  0.54781424  0.25920037  1
  C  C571  1  0.46018463  0.91645376  0.17913221  1
  C  C572  1  0.45086071  0.92847798  0.16458049  1
  C  C573  1  0.45774828  0.93776840  0.14244223  1
  C  C574  1  0.47475365  0.93637539  0.13528934  1
  C  C575  1  0.48421360  0.92434142  0.14954001  1
  C  C576  1  0.47703774  0.91448023  0.17076978  1
  C  C577  1  0.45213409  0.90688099  0.20076726  1
  C  C578  1  0.44558012  0.89817523  0.21942325  1
  C  C579  1  0.44046098  0.88685094  0.24102233  1
  C  C580  1  0.42443220  0.88614076  0.25390781  1
  C  C581  1  0.42080281  0.87518158  0.27621958  1
  C  C582  1  0.43313185  0.86450251  0.28700803  1
  C  C583  1  0.44822183  0.86371465  0.27096707  1
  C  C584  1  0.45213697  0.87500436  0.24981944  1
  C  C585  1  0.54225491  0.08542073  0.18052734  1
  C  C586  1  0.52601441  0.08791157  0.16952536  1
  C  C587  1  0.51943993  0.07791780  0.14790792  1
  C  C588  1  0.52884949  0.06505876  0.13593445  1
  C  C589  1  0.54522507  0.06286567  0.14623791  1
  C  C590  1  0.55150983  0.07246585  0.16852228  1
  C  C591  1  0.54966785  0.09528163  0.20240231  1
  C  C592  1  0.55595532  0.10406557  0.22120959  1
  C  C593  1  0.56228320  0.11472945  0.24289925  1
  C  C594  1  0.55218774  0.12785037  0.25197604  1
  C  C595  1  0.55734048  0.13846956  0.27349740  1
  C  C596  1  0.57244087  0.13614046  0.28894882  1
  C  C597  1  0.58323465  0.12394995  0.27806455  1
  C  C598  1  0.57823358  0.11347024  0.25584956  1
  C  C599  1  0.08760466  0.46128916  0.18041275  1
  C  C600  1  0.07679315  0.47435096  0.18679691  1
  C  C601  1  0.06715966  0.48133314  0.16512006  1
  C  C602  1  0.06751744  0.47497970  0.13653712  1
  C  C603  1  0.07803699  0.46189775  0.12984657  1
  C  C604  1  0.08806591  0.45535740  0.15121255  1
  C  C605  1  0.09771248  0.45425453  0.20222307  1
  C  C606  1  0.10644262  0.44823748  0.22132825  1
  C  C607  1  0.11650549  0.44161457  0.24360315  1
  C  C608  1  0.11544234  0.44751148  0.27281615  1
  C  C609  1  0.12583986  0.44187348  0.29445059  1
  C  C610  1  0.13824488  0.43026336  0.28819971  1
  C  C611  1  0.13795328  0.42295068  0.26005801  1
  C  C612  1  0.12770146  0.42874299  0.23819882  1
  C  C613  1  0.91695142  0.53999044  0.82097099  1
  C  C614  1  0.93443034  0.54013417  0.81731139  1
  C  C615  1  0.94474958  0.53354036  0.83824775  1
  C  C616  1  0.93793867  0.52616711  0.86350981  1
  C  C617  1  0.92053433  0.52573357  0.86721231  1
  C  C618  1  0.91026175  0.53265733  0.84660685  1
  C  C619  1  0.90673278  0.54696875  0.79932625  1
  C  C620  1  0.89785424  0.55302365  0.78050006  1
  C  C621  1  0.88753885  0.55983917  0.75885906  1
  C  C622  1  0.89398267  0.56692458  0.73278637  1
  C  C623  1  0.88353327  0.57291520  0.71148183  1
  C  C624  1  0.86605664  0.57196566  0.71467375  1
  C  C625  1  0.85967421  0.56590207  0.74158790  1
  C  C626  1  0.87007076  0.55990579  0.76287854  1
  C  C627  1  0.46137005  0.91652514  0.82128552  1
  C  C628  1  0.47883749  0.91863881  0.82349205  1
  C  C629  1  0.48569947  0.92868433  0.84471621  1
  C  C630  1  0.47530742  0.93728717  0.86410404  1
  C  C631  1  0.45796721  0.93472616  0.86283506  1
  C  C632  1  0.45114872  0.92471069  0.84171745  1
  C  C633  1  0.45387709  0.90644478  0.79986725  1
  C  C634  1  0.44774262  0.89750225  0.78115189  1
  C  C635  1  0.44155448  0.88687046  0.75935866  1
  C  C636  1  0.45299121  0.87881656  0.74073583  1
  C  C637  1  0.44765257  0.86793341  0.71975340  1
  C  C638  1  0.43046388  0.86570255  0.71380294  1
  C  C639  1  0.41900350  0.87312290  0.73334831  1
  C  C640  1  0.42438160  0.88340509  0.75544043  1
  N  N641  1  0.47709620  0.49708746  0.49763502  1
  N  N642  1  0.46455395  0.49175477  0.51504924  1
  N  N643  1  0.45624324  0.49068954  0.46706057  1
  N  N644  1  0.49920234  0.50330037  0.45531779  1
  N  N645  1  0.49770059  0.52574590  0.50594541  1
  N  N646  1  0.52713937  0.50532335  0.50273719  1
  N  N647  1  0.54006532  0.51030420  0.48571163  1
  N  N648  1  0.54799415  0.51107240  0.53386653  1
  N  N649  1  0.50493210  0.49863831  0.54519643  1
  N  N650  1  0.50494034  0.47611638  0.49536372  1
  N  N651  1  0.39489063  0.47272345  0.50196182  1
  N  N652  1  0.38125195  0.46430397  0.49975384  1
  N  N653  1  0.39725148  0.43855611  0.50192702  1
  N  N654  1  0.41091704  0.44703635  0.50401780  1
  N  N655  1  0.53088801  0.38748585  0.50276529  1
  N  N656  1  0.53956152  0.37442428  0.49951241  1
  N  N657  1  0.56566792  0.39090332  0.50006090  1
  N  N658  1  0.55687667  0.40398785  0.50306486  1
  N  N659  1  0.60997817  0.53003448  0.50155422  1
  N  N660  1  0.62338320  0.53895180  0.50179231  1
  N  N661  1  0.60660372  0.56400746  0.50326773  1
  N  N662  1  0.59313209  0.55512809  0.50298044  1
  N  N663  1  0.47135648  0.61464991  0.49958242  1
  N  N664  1  0.46232335  0.62760189  0.50112119  1
  N  N665  1  0.43673307  0.61066428  0.50314847  1
  N  N666  1  0.44576998  0.59765577  0.50166084  1
  O  O667  1  0.19300566  0.41298208  0.42949056  1
  O  O668  1  0.19772166  0.41638062  0.57575117  1
  O  O669  1  0.25614424  0.42499860  0.49193520  1
  O  O670  1  0.59206191  0.18973907  0.43021938  1
  O  O671  1  0.58815649  0.19450481  0.57651399  1
  O  O672  1  0.57911616  0.25213258  0.49250487  1
  O  O673  1  0.81004685  0.56655807  0.57020336  1
  O  O674  1  0.80558966  0.57084703  0.42420825  1
  O  O675  1  0.74651892  0.57955229  0.50774072  1
  O  O676  1  0.43404625  0.81033851  0.57009918  1
  O  O677  1  0.42876427  0.80584176  0.42393408  1
  O  O678  1  0.42099961  0.74774581  0.50688017  1
