# generated using pymatgen
data_Mg3Fe2H164(C7O)36
_symmetry_space_group_name_H-M   'P 1'
_cell_length_a   48.61482366
_cell_length_b   43.98538555
_cell_length_c   34.54772404
_cell_angle_alpha   90.83897907
_cell_angle_beta   85.35198125
_cell_angle_gamma   97.46967496
_symmetry_Int_Tables_number   1
_chemical_formula_structural   Mg3Fe2H164(C7O)36
_chemical_formula_sum   'Mg3 Fe2 H164 C252 O36'
_cell_volume   73006.40479970
_cell_formula_units_Z   1
loop_
 _symmetry_equiv_pos_site_id
 _symmetry_equiv_pos_as_xyz
  1  'x, y, z'
loop_
 _atom_site_type_symbol
 _atom_site_label
 _atom_site_symmetry_multiplicity
 _atom_site_fract_x
 _atom_site_fract_y
 _atom_site_fract_z
 _atom_site_occupancy
  Mg  Mg0  1  0.48907971  0.56610177  0.51373508  1
  Mg  Mg1  1  0.51315862  0.43901783  0.63747387  1
  Mg  Mg2  1  0.50168778  0.50282697  0.57528189  1
  Fe  Fe3  1  0.00190169  0.00867646  0.03201127  1
  Fe  Fe4  1  1.00173164  0.00173508  0.11812195  1
  H  H5  1  0.26221096  0.47322516  0.34462598  1
  H  H6  1  0.30950717  0.43581323  0.31368771  1
  H  H7  1  0.30561304  0.40545785  0.25884483  1
  H  H8  1  0.28069215  0.38353527  0.20382688  1
  H  H9  1  0.21190431  0.43344127  0.23927657  1
  H  H10  1  0.23663483  0.45512292  0.29533679  1
  H  H11  1  0.24858379  0.35728532  0.17241874  1
  H  H12  1  0.26495800  0.39116444  0.14885099  1
  H  H13  1  0.25296731  0.43317439  0.06763976  1
  H  H14  1  0.27353200  0.40755890  0.08636857  1
  H  H15  1  0.25477165  0.43080289  0.11827690  1
  H  H16  1  0.21046988  0.33680281  0.18968471  1
  H  H17  1  0.21176066  0.30637750  0.15582327  1
  H  H18  1  0.17942303  0.31776189  0.17361344  1
  H  H19  1  0.17042153  0.37389791  0.01484465  1
  H  H20  1  0.14530355  0.35757168  0.05147645  1
  H  H21  1  0.16776339  0.33463834  0.02537171  1
  H  H22  1  0.15912392  0.30728406  0.07624912  1
  H  H23  1  0.16279247  0.30252463  0.12666452  1
  H  H24  1  0.13517013  0.27125558  0.09972560  1
  H  H25  1  0.09516970  0.23254424  0.10215551  1
  H  H26  1  0.04048288  0.30219948  0.12602669  1
  H  H27  1  0.08191496  0.34106101  0.12926247  1
  H  H28  1  0.02086084  0.24215601  0.11879845  1
  H  H29  1  0.06642777  0.21297356  0.06959899  1
  H  H30  1  0.19083761  0.41449107  0.02536626  1
  H  H31  1  0.22505336  0.43054968  0.03372483  1
  H  H32  1  0.20560781  0.44568817  0.98052707  1
  H  H33  1  0.22678440  0.47933771  0.92703208  1
  H  H34  1  0.28188819  0.41204537  0.89227340  1
  H  H35  1  0.25765158  0.37684568  0.94294557  1
  H  H36  1  0.26544403  0.49072788  0.87121546  1
  H  H37  1  0.28312448  0.42976749  0.83910445  1
  H  H38  1  0.62992306  0.25898284  0.88747724  1
  H  H39  1  0.57270392  0.21998888  0.90618162  1
  H  H40  1  0.56963047  0.18272112  0.95826253  1
  H  H41  1  0.58790841  0.16225977  0.01538703  1
  H  H42  1  0.66532368  0.22136348  0.99205868  1
  H  H43  1  0.64699590  0.24257263  0.93512039  1
  H  H44  1  0.61327114  0.14136471  0.05720615  1
  H  H45  1  0.60269758  0.17563063  0.07755966  1
  H  H46  1  0.61793942  0.21729953  0.16366850  1
  H  H47  1  0.59446023  0.18976964  0.14160309  1
  H  H48  1  0.61761512  0.21618845  0.11261090  1
  H  H49  1  0.65215256  0.12946825  0.03756154  1
  H  H50  1  0.64641960  0.09681818  0.06812275  1
  H  H51  1  0.68063704  0.11419547  0.05419326  1
  H  H52  1  0.69483071  0.16917616  0.21459464  1
  H  H53  1  0.71748441  0.15655001  0.17660055  1
  H  H54  1  0.69316347  0.12991567  0.20328749  1
  H  H55  1  0.69920791  0.10291729  0.15103690  1
  H  H56  1  0.69213765  0.09706217  0.10166373  1
  H  H57  1  0.72306608  0.07088400  0.11615863  1
  H  H58  1  0.76464643  0.04496225  0.11688025  1
  H  H59  1  0.81671935  0.13195417  0.09930738  1
  H  H60  1  0.77437395  0.15822280  0.09935734  1
  H  H61  1  0.83853752  0.08761693  0.10514731  1
  H  H62  1  0.80330764  0.02356457  0.11612472  1
  H  H63  1  0.67795998  0.20519011  0.20718307  1
  H  H64  1  0.64785770  0.22002797  0.19487205  1
  H  H65  1  0.66927048  0.23691152  0.24927963  1
  H  H66  1  0.65575642  0.27029843  0.30323547  1
  H  H67  1  0.58808941  0.20086582  0.34173569  1
  H  H68  1  0.60188851  0.16737161  0.28727566  1
  H  H69  1  0.62612435  0.28134563  0.35812937  1
  H  H70  1  0.57871191  0.23138364  0.38916315  1
  H  H71  1  0.38320767  0.74249898  0.76663051  1
  H  H72  1  0.44097445  0.77618972  0.78332500  1
  H  H73  1  0.44189587  0.81391733  0.83603574  1
  H  H74  1  0.42012231  0.83581961  0.89490149  1
  H  H75  1  0.34321157  0.77751963  0.87930506  1
  H  H76  1  0.36513599  0.75468551  0.82080601  1
  H  H77  1  0.39129862  0.85994894  0.93462069  1
  H  H78  1  0.40173235  0.82735837  0.95613891  1
  H  H79  1  0.38111274  0.78635606  0.04290039  1
  H  H80  1  0.40642116  0.81344172  0.01885542  1
  H  H81  1  0.38440716  0.78753999  0.99173075  1
  H  H82  1  0.35449020  0.87359115  0.92121310  1
  H  H83  1  0.35902911  0.90656815  0.95131447  1
  H  H84  1  0.32527564  0.88948762  0.94166955  1
  H  H85  1  0.30352554  0.83808251  0.10510927  1
  H  H86  1  0.28265146  0.85033198  0.07010762  1
  H  H87  1  0.30632306  0.87713753  0.09320872  1
  H  H88  1  0.30247138  0.90233617  0.04206386  1
  H  H89  1  0.31138313  0.90791655  0.99158125  1
  H  H90  1  0.27901401  0.93379315  0.01802804  1
  H  H91  1  0.23698326  0.95903376  0.02812352  1
  H  H92  1  0.18650600  0.87347231  0.00396079  1
  H  H93  1  0.22905129  0.84733157  0.99758827  1
  H  H94  1  0.16395639  0.91778125  0.01664459  1
  H  H95  1  0.19851752  0.97962681  0.03717470  1
  H  H96  1  0.32097845  0.80164532  0.09620759  1
  H  H97  1  0.35248469  0.78748523  0.08148426  1
  H  H98  1  0.32779797  0.77228808  0.13828935  1
  H  H99  1  0.33990271  0.74006961  0.19013904  1
  H  H100  1  0.40265634  0.81286824  0.22230871  1
  H  H101  1  0.39094936  0.84464091  0.16896023  1
  H  H102  1  0.36669078  0.73021120  0.24064309  1
  H  H103  1  0.41187824  0.78082297  0.26721580  1
  H  H104  1  0.71914289  0.56926583  0.81364177  1
  H  H105  1  0.74337529  0.50782767  0.81777056  1
  H  H106  1  0.78060020  0.50868563  0.86389104  1
  H  H107  1  0.80408240  0.53129331  0.91971787  1
  H  H108  1  0.75698581  0.60789777  0.91898092  1
  H  H109  1  0.73201815  0.58472035  0.86459606  1
  H  H110  1  0.82806601  0.56238270  0.96060947  1
  H  H111  1  0.79699022  0.54466140  0.98566262  1
  H  H112  1  0.75781690  0.56277591  0.07377503  1
  H  H113  1  0.77813177  0.53683633  0.04958366  1
  H  H114  1  0.76094046  0.56152045  0.02256412  1
  H  H115  1  0.84954584  0.60266649  0.94864214  1
  H  H116  1  0.87809410  0.59999572  0.97674602  1
  H  H117  1  0.86714202  0.63599021  0.96833416  1
  H  H118  1  0.82037067  0.64377113  0.13536240  1
  H  H119  1  0.83452247  0.67155922  0.09991558  1
  H  H120  1  0.85580959  0.64686406  0.11913708  1
  H  H121  1  0.88219611  0.65284194  0.06855224  1
  H  H122  1  0.88776726  0.64462699  0.01828445  1
  H  H123  1  0.91756818  0.68306478  0.03756466  1
  H  H124  1  0.94795076  0.73144184  0.04562003  1
  H  H125  1  0.87720453  0.78135620  0.03981310  1
  H  H126  1  0.84656222  0.73209246  0.03286569  1
  H  H127  1  0.91904049  0.80942144  0.04547994  1
  H  H128  1  0.97342316  0.78041881  0.05245838  1
  H  H129  1  0.78113997  0.62775888  0.12320272  1
  H  H130  1  0.76371310  0.59113243  0.11284730  1
  H  H131  1  0.75052903  0.61602516  0.16667439  1
  H  H132  1  0.71650732  0.59891178  0.22094328  1
  H  H133  1  0.77143060  0.53683633  0.25757843  1
  H  H134  1  0.80509460  0.55350619  0.20191423  1
  H  H135  1  0.70142080  0.56986921  0.27461962  1
  H  H136  1  0.73680508  0.52351333  0.30673294  1
  H  H137  1  0.38381294  0.43185140  0.70703446  1
  H  H138  1  0.34212351  0.43071215  0.75377643  1
  H  H139  1  0.36327567  0.52670348  0.77742374  1
  H  H140  1  0.40522759  0.52800218  0.73026084  1
  H  H141  1  0.52482097  0.32724923  0.76646608  1
  H  H142  1  0.53668369  0.28750594  0.81054692  1
  H  H143  1  0.62029634  0.33398728  0.81029742  1
  H  H144  1  0.60839056  0.37360983  0.76626678  1
  H  H145  1  0.51777666  0.37359506  0.44130220  1
  H  H146  1  0.53151080  0.32468364  0.41281931  1
  H  H147  1  0.60019803  0.33135371  0.48520135  1
  H  H148  1  0.58594701  0.37976568  0.51419904  1
  H  H149  1  0.44181388  0.62389916  0.33297490  1
  H  H150  1  0.42751814  0.66294172  0.29023983  1
  H  H151  1  0.41636764  0.72207418  0.38921376  1
  H  H152  1  0.43073469  0.68295963  0.43181721  1
  H  H153  1  0.41328748  0.60278680  0.70497428  1
  H  H154  1  0.40076848  0.65214044  0.73399723  1
  H  H155  1  0.47086925  0.70177099  0.66803168  1
  H  H156  1  0.48284167  0.65245544  0.63820898  1
  H  H157  1  0.58188621  0.51734367  0.38297503  1
  H  H158  1  0.62415498  0.51921674  0.33727234  1
  H  H159  1  0.67555580  0.53607915  0.43298949  1
  H  H160  1  0.63310121  0.53378704  0.47873341  1
  H  H161  1  0.36653468  0.45005100  0.49193434  1
  H  H162  1  0.32421493  0.44847698  0.45544332  1
  H  H163  1  0.36870836  0.51393484  0.37395932  1
  H  H164  1  0.41023454  0.51772281  0.41289671  1
  H  H165  1  0.61661945  0.57070705  0.70481545  1
  H  H166  1  0.65814513  0.57218645  0.74283961  1
  H  H167  1  0.65406799  0.47418509  0.73308464  1
  H  H168  1  0.61085490  0.47250741  0.69788314  1
  C  C169  1  0.98492837  0.94756421  0.06748888  1
  C  C170  1  0.05096431  0.98995253  0.06959419  1
  C  C171  1  0.01756433  0.06323120  0.08328437  1
  C  C172  1  0.95205576  0.01807395  0.07977701  1
  C  C173  1  0.54893113  0.42139674  0.69301432  1
  C  C174  1  0.46989484  0.46719732  0.65373898  1
  C  C175  1  0.54637035  0.50360876  0.63085505  1
  C  C176  1  0.47848742  0.56126020  0.59887639  1
  C  C177  1  0.45482571  0.58243184  0.45536362  1
  C  C178  1  0.53176946  0.53755677  0.49586857  1
  C  C179  1  0.45674776  0.50192068  0.52043023  1
  C  C180  1  0.52434128  0.44439759  0.55163347  1
  C  C181  1  0.28215947  0.46422761  0.34187905  1
  C  C182  1  0.28925456  0.44385345  0.31277010  1
  C  C183  1  0.27338040  0.43211902  0.28137348  1
  C  C184  1  0.28508320  0.41166340  0.25457378  1
  C  C185  1  0.27117287  0.39959573  0.22335230  1
  C  C186  1  0.24498927  0.40789864  0.21769404  1
  C  C187  1  0.23251984  0.42759899  0.24389333  1
  C  C188  1  0.24648509  0.43966608  0.27530439  1
  C  C189  1  0.24458537  0.37848146  0.15847338  1
  C  C190  1  0.22581182  0.37221696  0.12612866  1
  C  C191  1  0.20331642  0.34842013  0.13066081  1
  C  C192  1  0.18407093  0.34471913  0.10194500  1
  C  C193  1  0.18737752  0.36395074  0.06903316  1
  C  C194  1  0.20939221  0.38831771  0.06598755  1
  C  C195  1  0.22919182  0.39234149  0.09397082  1
  C  C196  1  0.25365305  0.41714009  0.09134420  1
  C  C197  1  0.20105079  0.32646176  0.16402560  1
  C  C198  1  0.16680998  0.35744806  0.03875569  1
  C  C199  1  0.16029394  0.31934246  0.10443923  1
  C  C200  1  0.11117212  0.30904021  0.11359743  1
  C  C201  1  0.11460419  0.27852289  0.10524873  1
  C  C202  1  0.09160238  0.25644983  0.10500542  1
  C  C203  1  0.06410525  0.26401576  0.11105825  1
  C  C204  1  0.06118656  0.29528681  0.12031462  1
  C  C205  1  0.08438290  0.31730410  0.12177695  1
  C  C206  1  0.04216574  0.23910654  0.10877780  1
  C  C207  1  0.04850404  0.21167151  0.09140837  1
  C  C208  1  0.21152470  0.40868947  0.03116737  1
  C  C209  1  0.23200077  0.41020262  0.96645127  1
  C  C210  1  0.22252238  0.43854470  0.96129997  1
  C  C211  1  0.23409816  0.45720494  0.93069765  1
  C  C212  1  0.25537160  0.44798614  0.90415606  1
  C  C213  1  0.26408817  0.41884976  0.90993664  1
  C  C214  1  0.25142517  0.39953981  0.93943573  1
  C  C215  1  0.26907311  0.46686780  0.87310207  1
  C  C216  1  0.28622348  0.45453754  0.84475343  1
  C  C217  1  0.60736815  0.25252126  0.88804131  1
  C  C218  1  0.59405099  0.22892007  0.91157742  1
  C  C219  1  0.60605171  0.21556179  0.94301020  1
  C  C220  1  0.59038366  0.19190404  0.96605860  1
  C  C221  1  0.60066478  0.18036041  -0.00163380  1
  C  C222  1  0.62736883  0.19180441  0.00845890  1
  C  C223  1  0.64414996  0.21346929  0.98477552  1
  C  C224  1  0.63366209  0.22537354  0.95278706  1
  C  C225  1  0.62097615  0.16384346  0.06955557  1
  C  C226  1  0.63846586  0.16034997  0.10282007  1
  C  C227  1  0.65810316  0.13924735  0.09832859  1
  C  C228  1  0.67581912  0.13663176  0.12811623  1
  C  C229  1  0.67527000  0.15603857  0.16114823  1
  C  C230  1  0.65611773  0.17768841  0.16449187  1
  C  C231  1  0.63708211  0.17961849  0.13597936  1
  C  C232  1  0.61590450  0.20176871  0.13873828  1
  C  C233  1  0.65942823  0.11911293  0.06288522  1
  C  C234  1  0.69605103  0.15299394  0.19035920  1
  C  C235  1  0.69710951  0.11475597  0.12369625  1
  C  C236  1  0.74630005  0.11642578  0.10965785  1
  C  C237  1  0.74351547  0.08450869  0.11347647  1
  C  C238  1  0.76707760  0.06976248  0.11309144  1
  C  C239  1  0.79411093  0.08649412  0.10827798  1
  C  C240  1  0.79612786  0.11878530  0.10334013  1
  C  C241  1  0.77261370  0.13349170  0.10352586  1
  C  C242  1  0.81893600  0.07228521  0.10774629  1
  C  C243  1  0.82113729  0.04097233  0.10930471  1
  C  C244  1  0.65648419  0.19855735  0.19932566  1
  C  C245  1  0.63499888  0.20091319  0.26344328  1
  C  C246  1  0.65093856  0.22934645  0.26871445  1
  C  C247  1  0.64375937  0.24785191  0.29963153  1
  C  C248  1  0.62071317  0.23858182  0.32657122  1
  C  C249  1  0.60581613  0.20893981  0.32151068  1
  C  C250  1  0.61332590  0.19013300  0.29083961  1
  C  C251  1  0.61329106  0.25911223  0.35712480  1
  C  C252  1  0.59097570  0.25387690  0.38494900  1
  C  C253  1  0.40586499  0.74615537  0.76736163  1
  C  C254  1  0.41888127  0.76874691  0.79045747  1
  C  C255  1  0.40550542  0.78239120  0.82365777  1
  C  C256  1  0.42032585  0.80565425  0.84558417  1
  C  C257  1  0.40810390  0.81786803  0.87891382  1
  C  C258  1  0.38044059  0.80725336  0.89134205  1
  C  C259  1  0.36490605  0.78513896  0.86967434  1
  C  C260  1  0.37727869  0.77259283  0.83662401  1
  C  C261  1  0.38348091  0.83824185  0.94970526  1
  C  C262  1  0.36454453  0.84325883  0.98516207  1
  C  C263  1  0.34540678  0.86466824  0.98296093  1
  C  C264  1  0.32642523  0.86818118  0.01528719  1
  C  C265  1  0.32555208  0.84968338  0.04867578  1
  C  C266  1  0.34453212  0.82801814  0.05001819  1
  C  C267  1  0.36432762  0.82469942  0.01840297  1
  C  C268  1  0.38490847  0.80193908  0.01809572  1
  C  C269  1  0.34603690  0.88434075  0.94762068  1
  C  C270  1  0.30357785  0.85379160  0.08084711  1
  C  C271  1  0.30547605  0.89032780  0.01410167  1
  C  C272  1  0.25642243  0.88866047  0.00877326  1
  C  C273  1  0.25873033  0.92018825  0.01639052  1
  C  C274  1  0.23494959  0.93461876  0.02120190  1
  C  C275  1  0.20822790  0.91815046  0.01718031  1
  C  C276  1  0.20679680  0.88643576  0.00764447  1
  C  C277  1  0.23045282  0.87182538  0.00394538  1
  C  C278  1  0.18324757  0.93216240  0.02239341  1
  C  C279  1  0.18062623  0.96203820  0.03499791  1
  C  C280  1  0.34289689  0.80870175  0.08587981  1
  C  C281  1  0.36064750  0.80933737  0.14803259  1
  C  C282  1  0.34515046  0.78063163  0.15536916  1
  C  C283  1  0.35142838  0.76283909  0.18536246  1
  C  C284  1  0.37283991  0.77316041  0.20979008  1
  C  C285  1  0.38665149  0.80346571  0.20352379  1
  C  C286  1  0.38023779  0.82143795  0.17347978  1
  C  C287  1  0.37915879  0.75271405  0.23914350  1
  C  C288  1  0.39952892  0.75831296  0.26515048  1
  C  C289  1  0.71980772  0.54457647  0.80978518  1
  C  C290  1  0.73911787  0.53045063  0.82796834  1
  C  C291  1  0.75403968  0.54441583  0.85940309  1
  C  C292  1  0.77486760  0.53019316  0.87617175  1
  C  C293  1  0.78807954  0.54286537  0.90791632  1
  C  C294  1  0.78102979  0.57049938  0.92401477  1
  C  C295  1  0.76170069  0.58589875  0.90701005  1
  C  C296  1  0.74800742  0.57287064  0.87583634  1
  C  C297  1  0.80919764  0.56701957  0.97836953  1
  C  C298  1  0.81629609  0.58608302  0.01359968  1
  C  C299  1  0.84039741  0.60786042  0.01093112  1
  C  C300  1  0.84686812  0.62610140  0.04370359  1
  C  C301  1  0.82823175  0.62519523  0.07739715  1
  C  C302  1  0.80377691  0.60389469  0.07914416  1
  C  C303  1  0.79777279  0.58388940  0.04763074  1
  C  C304  1  0.77246438  0.56028056  0.04853995  1
  C  C305  1  0.85955695  0.61174335  0.97443084  1
  C  C306  1  0.83488647  0.64779316  0.10948139  1
  C  C307  1  0.87197229  0.64988743  0.04116541  1
  C  C308  1  0.88014433  0.70483834  0.03582647  1
  C  C309  1  0.90863874  0.70459647  0.03899966  1
  C  C310  1  0.92584603  0.73205995  0.04285042  1
  C  C311  1  0.91490853  0.76049811  0.04311696  1
  C  C312  1  0.88591600  0.75975440  0.03939279  1
  C  C313  1  0.86879368  0.73240607  0.03554871  1
  C  C314  1  0.93085738  0.79003847  0.04668056  1
  C  C315  1  0.95916090  0.79759133  0.05153929  1
  C  C316  1  0.78444550  0.60398569  0.11533396  1
  C  C317  1  0.77887125  0.58383931  0.17924375  1
  C  C318  1  0.75458111  0.59771993  0.18551517  1
  C  C319  1  0.73581020  0.58871656  0.21669900  1
  C  C320  1  0.74083904  0.56627539  0.24340366  1
  C  C321  1  0.76648523  0.55388686  0.23753933  1
  C  C322  1  0.78544805  0.56305905  0.20620863  1
  C  C323  1  0.71977944  0.55799937  0.27450542  1
  C  C324  1  0.71972442  0.53702824  0.30415207  1
  C  C325  1  0.02004800  0.09633767  0.08822402  1
  C  C326  1  0.02297565  0.12423758  0.09230754  1
  C  C327  1  0.02700934  0.15487080  0.09627340  1
  C  C328  1  0.03402175  0.18286844  0.09692590  1
  C  C329  1  0.92266126  0.02076035  0.08539195  1
  C  C330  1  0.89783117  0.02267317  0.09081808  1
  C  C331  1  0.87061980  0.02481329  0.09700095  1
  C  C332  1  0.84671059  0.03109666  0.10331901  1
  C  C333  1  0.07980873  0.98473467  0.06393574  1
  C  C334  1  0.10431261  0.98115112  0.05862118  1
  C  C335  1  0.13115875  0.97725038  0.05234070  1
  C  C336  1  0.15477150  0.97064472  0.04410094  1
  C  C337  1  0.98194520  0.91439866  0.06388623  1
  C  C338  1  0.97931217  0.88644883  0.06120445  1
  C  C339  1  0.97640100  0.85576987  0.05827139  1
  C  C340  1  0.96990983  0.82784407  0.05525191  1
  C  C341  1  0.44378960  0.47553423  0.67185973  1
  C  C342  1  0.42200130  0.48007378  0.69004451  1
  C  C343  1  0.39747847  0.48010788  0.71538843  1
  C  C344  1  0.37903990  0.45260080  0.72231647  1
  C  C345  1  0.35604682  0.45194120  0.74818915  1
  C  C346  1  0.34998132  0.47876290  0.76886441  1
  C  C347  1  0.36798355  0.50622078  0.76150668  1
  C  C348  1  0.39112017  0.50688175  0.73543404  1
  C  C349  1  0.32684669  0.47710029  0.79671321  1
  C  C350  1  0.30676483  0.47116288  0.82059196  1
  C  C351  1  0.55412809  0.39659497  0.71821752  1
  C  C352  1  0.55899609  0.37611958  0.73917646  1
  C  C353  1  0.56567745  0.35332747  0.76370323  1
  C  C354  1  0.54563569  0.32848546  0.77642146  1
  C  C355  1  0.55218895  0.30654742  0.80085872  1
  C  C356  1  0.57916080  0.30817835  0.81417174  1
  C  C357  1  0.59940102  0.33281546  0.80068072  1
  C  C358  1  0.59285900  0.35467330  0.77631801  1
  C  C359  1  0.58603568  0.28627646  0.84002558  1
  C  C360  1  0.59371379  0.26850358  0.86285244  1
  C  C361  1  0.53459563  0.42552088  0.52000123  1
  C  C362  1  0.54263131  0.40677315  0.49660164  1
  C  C363  1  0.55153013  0.38014860  0.47850606  1
  C  C364  1  0.53595433  0.36422808  0.45008083  1
  C  C365  1  0.54351718  0.33738392  0.43447183  1
  C  C366  1  0.56734131  0.32540990  0.44611916  1
  C  C367  1  0.58243345  0.34104870  0.47552638  1
  C  C368  1  0.57469385  0.36775528  0.49131659  1
  C  C369  1  0.57571948  0.29882837  0.42811556  1
  C  C370  1  0.58338756  0.27732667  0.40879894  1
  C  C371  1  0.44905252  0.60716045  0.43044090  1
  C  C372  1  0.44376810  0.62757378  0.40968563  1
  C  C373  1  0.43662227  0.65038407  0.38552716  1
  C  C374  1  0.43598340  0.64541926  0.34495719  1
  C  C375  1  0.42810295  0.66702588  0.32134421  1
  C  C376  1  0.42041537  0.69518663  0.33665790  1
  C  C377  1  0.42180459  0.70042368  0.37716350  1
  C  C378  1  0.42971791  0.67875618  0.40077961  1
  C  C379  1  0.41218164  0.71713084  0.31213080  1
  C  C380  1  0.40518923  0.73584768  0.28994336  1
  C  C381  1  0.46598818  0.57926790  0.62967087  1
  C  C382  1  0.45614690  0.59699002  0.65293840  1
  C  C383  1  0.44928019  0.62456272  0.67100400  1
  C  C384  1  0.42585046  0.62458114  0.69780292  1
  C  C385  1  0.41911608  0.65166286  0.71379295  1
  C  C386  1  0.43596189  0.67989781  0.70436363  1
  C  C387  1  0.45882274  0.67988264  0.67628460  1
  C  C388  1  0.46535555  0.65283057  0.65997411  1
  C  C389  1  0.42945298  0.70711166  0.72299070  1
  C  C390  1  0.42050145  0.72754740  0.74304826  1
  C  C391  1  0.55827235  0.53010444  0.47801187  1
  C  C392  1  0.58041487  0.52626977  0.46024329  1
  C  C393  1  0.60450673  0.52557625  0.43420068  1
  C  C394  1  0.60252478  0.52118247  0.39369419  1
  C  C395  1  0.62594241  0.52219818  0.36837085  1
  C  C396  1  0.65304350  0.52760171  0.38182603  1
  C  C397  1  0.65491017  0.53165481  0.42237164  1
  C  C398  1  0.63141355  0.53050743  0.44768410  1
  C  C399  1  0.67723244  0.52936735  0.35603644  1
  C  C400  1  0.69744112  0.53260858  0.33189898  1
  C  C401  1  0.43435997  0.48991306  0.49657800  1
  C  C402  1  0.41470977  0.48422249  0.47645311  1
  C  C403  1  0.39146609  0.48298940  0.45386510  1
  C  C404  1  0.36670143  0.46385801  0.46601258  1
  C  C405  1  0.34337116  0.46301815  0.44593234  1
  C  C406  1  0.34364838  0.48089318  0.41203200  1
  C  C407  1  0.36851951  0.50027088  0.40004574  1
  C  C408  1  0.39160529  0.50173967  0.42082263  1
  C  C409  1  0.31999233  0.47837456  0.39051571  1
  C  C410  1  0.30067377  0.47358098  0.36931214  1
  C  C411  1  0.56930250  0.51553169  0.65386324  1
  C  C412  1  0.58896438  0.52159151  0.67388761  1
  C  C413  1  0.61195580  0.52176352  0.69684553  1
  C  C414  1  0.62514844  0.54976290  0.71097496  1
  C  C415  1  0.64795177  0.55049904  0.73220357  1
  C  C416  1  0.65889906  0.52317144  0.74083685  1
  C  C417  1  0.64548415  0.49510193  0.72692762  1
  C  C418  1  0.62222956  0.49428894  0.70647932  1
  C  C419  1  0.68195678  0.52465740  0.76365524  1
  C  C420  1  0.70124371  0.53005038  0.78475359  1
  O  O421  1  0.98627584  0.95857106  0.10184453  1
  O  O422  1  0.03921512  0.99521843  0.03903229  1
  O  O423  1  0.01708651  0.04722963  0.11397804  1
  O  O424  1  0.96302728  0.01917589  0.04488210  1
  O  O425  1  0.01609333  0.05261363  0.04874591  1
  O  O426  1  0.96430796  0.01454832  0.11041683  1
  O  O427  1  0.98619585  0.96300437  0.03624616  1
  O  O428  1  0.04000498  0.98947840  0.10446100  1
  O  O429  1  0.52408802  0.53248740  0.53130730  1
  O  O430  1  0.51790272  0.55222524  0.47410133  1
  O  O431  1  0.46937706  0.48453310  0.53893282  1
  O  O432  1  0.46063768  0.53109184  0.51992662  1
  O  O433  1  0.52483709  0.47249218  0.54616123  1
  O  O434  1  0.51574436  0.42872630  0.58226455  1
  O  O435  1  0.56219157  0.44671590  0.70044630  1
  O  O436  1  0.53171643  0.41240114  0.66803294  1
  O  O437  1  0.47811634  0.47314495  0.61871505  1
  O  O438  1  0.48297903  0.45131136  0.67521923  1
  O  O439  1  0.53456498  0.52089741  0.61092175  1
  O  O440  1  0.54092836  0.47463798  0.63356936  1
  O  O441  1  0.47858626  0.53322956  0.60427749  1
  O  O442  1  0.48807055  0.57740992  0.56895215  1
  O  O443  1  0.44356877  0.55649632  0.44628755  1
  O  O444  1  0.47047842  0.59206074  0.48203619  1
  O  O445  1  0.23053909  0.39708804  0.18728263  1
  O  O446  1  0.22262233  0.39228870  0.99773320  1
  O  O447  1  0.13366816  0.33093268  0.11388012  1
  O  O448  1  0.63888558  0.18175447  0.03977614  1
  O  O449  1  0.64029084  0.18280724  0.23216414  1
  O  O450  1  0.72396671  0.13221457  0.11159286  1
  O  O451  1  0.36708305  0.81819963  0.92366650  1
  O  O452  1  0.35677712  0.82617148  0.11661746  1
  O  O453  1  0.27887376  0.87304740  0.00578024  1
  O  O454  1  0.79283414  0.58434601  0.95524434  1
  O  O455  1  0.79673243  0.59064882  0.14725048  1
  O  O456  1  0.86225138  0.67873085  0.03200629  1
