# generated using pymatgen
data_SiH238(C25O)14
_symmetry_space_group_name_H-M   'P 1'
_cell_length_a   46.47506193
_cell_length_b   44.25755929
_cell_length_c   59.76558119
_cell_angle_alpha   90.90875880
_cell_angle_beta   92.22951393
_cell_angle_gamma   89.06372935
_symmetry_Int_Tables_number   1
_chemical_formula_structural   SiH238(C25O)14
_chemical_formula_sum   'Si1 H238 C350 O14'
_cell_volume   122806.48154660
_cell_formula_units_Z   1
loop_
 _symmetry_equiv_pos_site_id
 _symmetry_equiv_pos_as_xyz
  1  'x, y, z'
loop_
 _atom_site_type_symbol
 _atom_site_label
 _atom_site_symmetry_multiplicity
 _atom_site_fract_x
 _atom_site_fract_y
 _atom_site_fract_z
 _atom_site_occupancy
  Si  Si0  1  0.53167697  0.53377630  0.51211555  1
  H  H1  1  0.00621396  0.98075137  0.96681093  1
  H  H2  1  0.03041317  0.02956734  0.90881373  1
  H  H3  1  0.03030650  0.07386075  0.97344762  1
  H  H4  1  0.07786042  0.03424856  0.04356763  1
  H  H5  1  0.02820568  0.01962423  0.10165389  1
  H  H6  1  0.98599364  0.02777286  0.03709698  1
  H  H7  1  0.63785510  0.54810422  0.54772250  1
  H  H8  1  0.53456139  0.62613887  0.44677946  1
  H  H9  1  0.49738673  0.55084150  0.47847246  1
  H  H10  1  0.53024327  0.43218782  0.43264443  1
  H  H11  1  0.42329307  0.52625498  0.54477914  1
  H  H12  1  0.57787316  0.58771254  0.50501182  1
  H  H13  1  0.47841075  0.48937554  0.50200532  1
  H  H14  1  0.55826558  0.51315590  0.47368175  1
  H  H15  1  0.51325330  0.50321444  0.54971133  1
  H  H16  1  0.48538666  0.58848877  0.52248697  1
  H  H17  1  0.58467485  0.48134610  0.51551171  1
  H  H18  1  0.54671128  0.54731404  0.55799479  1
  H  H19  1  0.87571940  0.41580501  0.69749766  1
  H  H20  1  0.87648343  0.35771302  0.66844490  1
  H  H21  1  0.91401630  0.32204647  0.67520451  1
  H  H22  1  0.96279479  0.30804328  0.68881345  1
  H  H23  1  0.97206490  0.39631980  0.71961811  1
  H  H24  1  0.92376365  0.41122777  0.70463366  1
  H  H25  1  0.01278449  0.30854707  0.69531216  1
  H  H26  1  0.99421056  0.29870332  0.71940112  1
  H  H27  1  0.01397738  0.29338241  0.77735563  1
  H  H28  1  0.00526476  0.27484815  0.75175055  1
  H  H29  1  0.99368958  0.31268102  0.75615285  1
  H  H30  1  0.04133905  0.33846387  0.68515118  1
  H  H31  1  0.07124696  0.31387241  0.68102607  1
  H  H32  1  0.07652238  0.35207802  0.68915050  1
  H  H33  1  0.11805176  0.31562183  0.78204320  1
  H  H34  1  0.12823075  0.34357946  0.76290640  1
  H  H35  1  0.13558411  0.30494232  0.75753927  1
  H  H36  1  0.13606065  0.32042367  0.72352782  1
  H  H37  1  0.11503971  0.32970022  0.69922238  1
  H  H38  1  0.15408816  0.34451317  0.68950341  1
  H  H39  1  0.20055348  0.36688828  0.68140339  1
  H  H40  1  0.18442606  0.44000480  0.72798821  1
  H  H41  1  0.13761347  0.41705407  0.73664780  1
  H  H42  1  0.23274733  0.43383124  0.71157523  1
  H  H43  1  0.24507728  0.36987079  0.69360386  1
  H  H44  1  0.07911333  0.32575387  0.79564562  1
  H  H45  1  0.04552109  0.30770322  0.79500461  1
  H  H46  1  0.07221468  0.30837344  0.83087544  1
  H  H47  1  0.05970035  0.28289636  0.86564885  1
  H  H48  1  0.07613051  0.19616498  0.83435386  1
  H  H49  1  0.08631662  0.22179489  0.79887159  1
  H  H50  1  0.05031847  0.23637678  0.88654697  1
  H  H51  1  0.05875272  0.17431753  0.88530805  1
  H  H52  1  0.66915823  0.86238473  0.32034673  1
  H  H53  1  0.70810311  0.88083754  0.36129011  1
  H  H54  1  0.74310206  0.91815940  0.35564209  1
  H  H55  1  0.76162830  0.96109048  0.33553670  1
  H  H56  1  0.69628928  0.94793774  0.28323805  1
  H  H57  1  0.67771797  0.90461945  0.30328854  1
  H  H58  1  0.78116066  0.98813190  0.30601031  1
  H  H59  1  0.75613112  0.00963758  0.32142837  1
  H  H60  1  0.71297418  0.07586401  0.31028633  1
  H  H61  1  0.74109190  0.05856766  0.32625361  1
  H  H62  1  0.71424308  0.03605454  0.31282919  1
  H  H63  1  0.79495838  0.97823844  0.27625314  1
  H  H64  1  0.82446802  0.00318593  0.27691625  1
  H  H65  1  0.80722136  0.99261411  0.25112592  1
  H  H66  1  0.75418997  0.11862842  0.24345839  1
  H  H67  1  0.76472276  0.09121933  0.22322294  1
  H  H68  1  0.79076363  0.10905389  0.24098936  1
  H  H69  1  0.81851341  0.07083721  0.23696008  1
  H  H70  1  0.82342388  0.03126661  0.24001321  1
  H  H71  1  0.84869907  0.04976772  0.21208874  1
  H  H72  1  0.87151657  0.05510149  0.17603296  1
  H  H73  1  0.78895429  0.04531190  0.14130682  1
  H  H74  1  0.76558972  0.04152370  0.17793707  1
  H  H75  1  0.83164908  0.04965260  0.11925092  1
  H  H76  1  0.89204058  0.05714209  0.12626376  1
  H  H77  1  0.71527687  0.10594550  0.25685550  1
  H  H78  1  0.70728387  0.10084462  0.28511567  1
  H  H79  1  0.68943865  0.14751031  0.26537660  1
  H  H80  1  0.66066242  0.18598391  0.28552410  1
  H  H81  1  0.73708935  0.21044036  0.32512776  1
  H  H82  1  0.76366085  0.16790053  0.30802045  1
  H  H83  1  0.65654353  0.22517072  0.31316855  1
  H  H84  1  0.71231218  0.24053924  0.34110251  1
  H  H85  1  0.83108084  0.71612684  0.68015664  1
  H  H86  1  0.82578889  0.66743923  0.71587461  1
  H  H87  1  0.86830677  0.65228031  0.73708068  1
  H  H88  1  0.91947925  0.65875974  0.74794706  1
  H  H89  1  0.92684320  0.72418818  0.69573374  1
  H  H90  1  0.87684601  0.71379734  0.68245162  1
  H  H91  1  0.97003699  0.66949514  0.75265501  1
  H  H92  1  0.94932997  0.69981080  0.76350360  1
  H  H93  1  0.96531242  0.77310667  0.78328894  1
  H  H94  1  0.95820350  0.73509772  0.78907964  1
  H  H95  1  0.94619143  0.75055728  0.76318861  1
  H  H96  1  0.99429463  0.66884034  0.72219945  1
  H  H97  1  0.02229979  0.65388601  0.73978761  1
  H  H98  1  0.03026514  0.67316023  0.71501108  1
  H  H99  1  0.06815353  0.78706358  0.76551378  1
  H  H100  1  0.07652935  0.76985479  0.73945446  1
  H  H101  1  0.08769843  0.75265153  0.76484237  1
  H  H102  1  0.08819943  0.70881793  0.74728954  1
  H  H103  1  0.06792721  0.68352624  0.72979803  1
  H  H104  1  0.11514531  0.67694398  0.72408909  1
  H  H105  1  0.15850910  0.66592222  0.70349578  1
  H  H106  1  0.13815600  0.74039048  0.65960638  1
  H  H107  1  0.09399467  0.75117696  0.68023568  1
  H  H108  1  0.17948174  0.70952901  0.65186880  1
  H  H109  1  0.20306766  0.67000373  0.69072177  1
  H  H110  1  0.03185790  0.80492980  0.77076038  1
  H  H111  1  0.99449615  0.80117240  0.77365716  1
  H  H112  1  0.00947400  0.84611342  0.78854833  1
  H  H113  1  0.99904851  0.88793545  0.81444959  1
  H  H114  1  0.01657096  0.82946160  0.87062884  1
  H  H115  1  0.02361573  0.78669281  0.84449455  1
  H  H116  1  0.99820586  0.91007592  0.85011432  1
  H  H117  1  0.00458667  0.86959351  0.89182139  1
  H  H118  1  0.37136306  0.81661463  0.30031345  1
  H  H119  1  0.32689360  0.81829473  0.33680916  1
  H  H120  1  0.29243533  0.85996431  0.33497577  1
  H  H121  1  0.28008951  0.91271000  0.32537400  1
  H  H122  1  0.36211565  0.92127448  0.29466431  1
  H  H123  1  0.37595781  0.86942093  0.30687788  1
  H  H124  1  0.27591075  0.96277948  0.31545994  1
  H  H125  1  0.27102900  0.94054047  0.29076794  1
  H  H126  1  0.26265000  0.95839945  0.23358721  1
  H  H127  1  0.24654634  0.95013272  0.25892970  1
  H  H128  1  0.28251952  0.93845970  0.25463082  1
  H  H129  1  0.31361013  0.98949309  0.32517249  1
  H  H130  1  0.28773084  0.01796877  0.33107866  1
  H  H131  1  0.32327361  0.02761626  0.32445409  1
  H  H132  1  0.28787758  0.06717313  0.23038869  1
  H  H133  1  0.31633801  0.07671374  0.24990673  1
  H  H134  1  0.28043926  0.08715022  0.25529152  1
  H  H135  1  0.29298362  0.08800918  0.29067149  1
  H  H136  1  0.30722531  0.06661641  0.31349671  1
  H  H137  1  0.31504506  0.11362585  0.32103321  1
  H  H138  1  0.33834482  0.15975255  0.33457732  1
  H  H139  1  0.40888702  0.14238245  0.29107123  1
  H  H140  1  0.38647442  0.09414069  0.27886387  1
  H  H141  1  0.40932641  0.18836971  0.31457808  1
  H  H142  1  0.35019621  0.20596343  0.33330234  1
  H  H143  1  0.28909887  0.02753588  0.21552284  1
  H  H144  1  0.27886587  0.98948275  0.21671789  1
  H  H145  1  0.27041418  0.01109369  0.17905301  1
  H  H146  1  0.24347046  0.00481427  0.14330487  1
  H  H147  1  0.16344775  0.01311159  0.17745309  1
  H  H148  1  0.19069009  0.02296490  0.21293628  1
  H  H149  1  0.19623297  0.01419166  0.12083240  1
  H  H150  1  0.14724412  0.98723661  0.14704439  1
  H  H151  1  0.66093717  0.48251230  0.60160664  1
  H  H152  1  0.70454791  0.45701451  0.54181922  1
  H  H153  1  0.66282597  0.47448075  0.51869423  1
  H  H154  1  0.61662747  0.49216631  0.57867357  1
  H  H155  1  0.82182917  0.41058390  0.61390084  1
  H  H156  1  0.86314291  0.39447078  0.63783748  1
  H  H157  1  0.82045580  0.42940407  0.69588311  1
  H  H158  1  0.77860372  0.44416460  0.67189258  1
  H  H159  1  0.56638249  0.39730673  0.41510743  1
  H  H160  1  0.63320698  0.46103824  0.43429264  1
  H  H161  1  0.59692942  0.49293583  0.45420825  1
  H  H162  1  0.53047560  0.42137043  0.47057759  1
  H  H163  1  0.67849358  0.34085580  0.35979520  1
  H  H164  1  0.70488875  0.30059647  0.33947880  1
  H  H165  1  0.63432310  0.23974035  0.34791198  1
  H  H166  1  0.60874127  0.27943588  0.36949995  1
  H  H167  1  0.41713263  0.61982480  0.59553419  1
  H  H168  1  0.35564386  0.58564882  0.54622588  1
  H  H169  1  0.39514549  0.56811129  0.52296735  1
  H  H170  1  0.45631650  0.60804592  0.57033396  1
  H  H171  1  0.24000958  0.63394392  0.60930849  1
  H  H172  1  0.19920058  0.65310788  0.63042096  1
  H  H173  1  0.25798423  0.68248530  0.68367116  1
  H  H174  1  0.29884193  0.66569184  0.66152244  1
  H  H175  1  0.57683043  0.71132992  0.46723379  1
  H  H176  1  0.62159803  0.64810592  0.42512124  1
  H  H177  1  0.60622266  0.60617643  0.44807834  1
  H  H178  1  0.55917651  0.66939132  0.48904059  1
  H  H179  1  0.66483349  0.76205688  0.35603026  1
  H  H180  1  0.68227553  0.80195923  0.33220123  1
  H  H181  1  0.64554545  0.86948661  0.37589174  1
  H  H182  1  0.62556460  0.82939024  0.39821999  1
  H  H183  1  0.44424473  0.36553277  0.47474183  1
  H  H184  1  0.46671526  0.41479700  0.41653433  1
  H  H185  1  0.47852306  0.45890253  0.44093734  1
  H  H186  1  0.46354183  0.40623766  0.49922039  1
  H  H187  1  0.42570349  0.29578704  0.34381258  1
  H  H188  1  0.40726940  0.25471277  0.31938300  1
  H  H189  1  0.37123993  0.21290615  0.37644900  1
  H  H190  1  0.39155155  0.25298784  0.40105732  1
  H  H191  1  0.41127588  0.52091317  0.60858696  1
  H  H192  1  0.43201168  0.43075410  0.58451219  1
  H  H193  1  0.47353363  0.45109335  0.56434928  1
  H  H194  1  0.45676101  0.53893810  0.59248746  1
  H  H195  1  0.32334118  0.38185379  0.64707426  1
  H  H196  1  0.28639692  0.36174872  0.67147577  1
  H  H197  1  0.25743915  0.45328819  0.68618941  1
  H  H198  1  0.29618749  0.47300260  0.66357587  1
  H  H199  1  0.46090796  0.60526026  0.39712534  1
  H  H200  1  0.45508737  0.67018582  0.45168836  1
  H  H201  1  0.47346880  0.63060303  0.47826787  1
  H  H202  1  0.48082735  0.56674298  0.42391468  1
  H  H203  1  0.40011226  0.78014720  0.38543638  1
  H  H204  1  0.37696823  0.81854900  0.36062536  1
  H  H205  1  0.38198932  0.75614988  0.30425716  1
  H  H206  1  0.40212846  0.71688254  0.32980625  1
  H  H207  1  0.63381594  0.56444599  0.61943664  1
  H  H208  1  0.64327724  0.63545273  0.57160237  1
  H  H209  1  0.60004682  0.61657923  0.54966923  1
  H  H210  1  0.58844257  0.54878060  0.59900465  1
  H  H211  1  0.75619308  0.69285738  0.62753281  1
  H  H212  1  0.79566574  0.71732335  0.64982191  1
  H  H213  1  0.79405210  0.64496118  0.69782416  1
  H  H214  1  0.75443979  0.62145786  0.67570802  1
  H  H215  1  0.97962840  0.07537241  0.04818887  1
  H  H216  1  0.94233478  0.11212719  0.03661728  1
  H  H217  1  0.89833107  0.12005964  0.05855427  1
  H  H218  1  0.89056344  0.08723194  0.09151472  1
  H  H219  1  0.98425860  0.99613318  0.10474593  1
  H  H220  1  0.93861705  0.00449043  0.12558494  1
  H  H221  1  0.97890968  0.08321685  0.93778118  1
  H  H222  1  0.94260547  0.12243470  0.92817789  1
  H  H223  1  0.95633008  0.17000841  0.90994656  1
  H  H224  1  0.00792599  0.17863645  0.90215508  1
  H  H225  1  0.08254728  0.07446822  0.92966254  1
  H  H226  1  0.09556094  0.12424706  0.91313465  1
  H  H227  1  0.04641890  0.06235809  0.10855642  1
  H  H228  1  0.04529328  0.07325677  0.14926749  1
  H  H229  1  0.08932032  0.06243419  0.17343634  1
  H  H230  1  0.13284624  0.04129996  0.15584326  1
  H  H231  1  0.10775178  0.99940770  0.06308328  1
  H  H232  1  0.15119979  0.99054170  0.08662125  1
  H  H233  1  0.96357666  0.99638555  0.93598226  1
  H  H234  1  0.91510287  0.97550247  0.92818529  1
  H  H235  1  0.90938423  0.92863473  0.90475960  1
  H  H236  1  0.95202850  0.90285837  0.88948804  1
  H  H237  1  0.05951264  0.96657416  0.91696217  1
  H  H238  1  0.05395031  0.91998883  0.89487224  1
  C  C239  1  0.01766426  0.02711414  0.97258148  1
  C  C240  1  0.01261238  1.00159407  0.95905726  1
  C  C241  1  0.02671446  0.02884095  0.92671496  1
  C  C242  1  0.01782326  0.00181131  0.93610804  1
  C  C243  1  0.02608621  0.05394844  0.96296562  1
  C  C244  1  0.02944322  0.05527642  0.93985728  1
  C  C245  1  0.01233489  0.02413304  0.99712141  1
  C  C246  1  0.03204847  0.03213192  0.03783799  1
  C  C247  1  0.05737038  0.03079818  0.05129275  1
  C  C248  1  0.02939981  0.02444342  0.08392938  1
  C  C249  1  0.05663912  0.02590303  0.07446430  1
  C  C250  1  0.00542490  0.03004406  0.04768301  1
  C  C251  1  0.00383507  0.02911830  0.07100684  1
  C  C252  1  0.03494392  0.03800263  0.01332058  1
  C  C253  1  0.59238719  0.55285882  0.55335384  1
  C  C254  1  0.51234208  0.59071149  0.46276604  1
  C  C255  1  0.51435788  0.56740730  0.47804758  1
  C  C256  1  0.53787281  0.56646975  0.49328785  1
  C  C257  1  0.56031378  0.58802014  0.49244261  1
  C  C258  1  0.55929785  0.60940386  0.47520989  1
  C  C259  1  0.53537054  0.61010603  0.46043674  1
  C  C260  1  0.49891942  0.45380678  0.48227728  1
  C  C261  1  0.49748410  0.48194400  0.49335070  1
  C  C262  1  0.52223139  0.50033516  0.49350399  1
  C  C263  1  0.54337386  0.49558071  0.47778589  1
  C  C264  1  0.54445624  0.46721407  0.46725384  1
  C  C265  1  0.52551693  0.44517779  0.47390184  1
  C  C266  1  0.45188668  0.56235663  0.53753518  1
  C  C267  1  0.44567517  0.53297645  0.54349456  1
  C  C268  1  0.46812164  0.51480482  0.55237602  1
  C  C269  1  0.49580889  0.51875697  0.54488684  1
  C  C270  1  0.49966575  0.54234091  0.53005024  1
  C  C271  1  0.47964806  0.56709896  0.52969583  1
  C  C272  1  0.61668144  0.53798106  0.54517650  1
  C  C273  1  0.61406453  0.50833218  0.53692301  1
  C  C274  1  0.58742937  0.50148990  0.52597976  1
  C  C275  1  0.56364259  0.52119262  0.53008938  1
  C  C276  1  0.56550479  0.54007396  0.54892904  1
  C  C277  1  0.87051040  0.40131811  0.68296756  1
  C  C278  1  0.88621753  0.37560617  0.67886276  1
  C  C279  1  0.91458483  0.36777868  0.68859126  1
  C  C280  1  0.92668029  0.33864068  0.68478766  1
  C  C281  1  0.95412590  0.33043273  0.69290407  1
  C  C282  1  0.97038725  0.35108855  0.70580048  1
  C  C283  1  0.95913204  0.38012719  0.70984303  1
  C  C284  1  0.93179864  0.38837289  0.70139551  1
  C  C285  1  0.00978279  0.31464451  0.71303361  1
  C  C286  1  0.03809949  0.31450149  0.72631730  1
  C  C287  1  0.06329990  0.32344185  0.71589331  1
  C  C288  1  0.08972016  0.32343303  0.72842235  1
  C  C289  1  0.09075998  0.31822241  0.75171689  1
  C  C290  1  0.06496848  0.31155772  0.76224668  1
  C  C291  1  0.03895806  0.30769505  0.74947421  1
  C  C292  1  0.01180806  0.29673951  0.75926881  1
  C  C293  1  0.06295100  0.33238203  0.69171555  1
  C  C294  1  0.11934481  0.32073798  0.76425015  1
  C  C295  1  0.11658549  0.33285932  0.71750218  1
  C  C296  1  0.14479193  0.37767161  0.71566797  1
  C  C297  1  0.16151486  0.36422696  0.69914097  1
  C  C298  1  0.18777489  0.37671052  0.69467691  1
  C  C299  1  0.19782270  0.40249469  0.70674862  1
  C  C300  1  0.17836873  0.41825304  0.72058148  1
  C  C301  1  0.15208144  0.40578947  0.72513564  1
  C  C302  1  0.22663007  0.41237903  0.70366558  1
  C  C303  1  0.24611565  0.39444065  0.69288530  1
  C  C304  1  0.06656213  0.30755143  0.78723256  1
  C  C305  1  0.07722706  0.26628112  0.81218292  1
  C  C306  1  0.07126624  0.28377301  0.83118481  1
  C  C307  1  0.06534924  0.26940758  0.85100266  1
  C  C308  1  0.06662478  0.23765913  0.85244630  1
  C  C309  1  0.07471929  0.22072537  0.83355409  1
  C  C310  1  0.08045585  0.23497004  0.81360674  1
  C  C311  1  0.05949827  0.22227773  0.87331416  1
  C  C312  1  0.06546715  0.19313262  0.87511533  1
  C  C313  1  0.67728953  0.86290731  0.33780146  1
  C  C314  1  0.69751132  0.88325048  0.34477091  1
  C  C315  1  0.70842852  0.90792155  0.33164336  1
  C  C316  1  0.73234295  0.92476686  0.33989741  1
  C  C317  1  0.74286777  0.94923729  0.32851826  1
  C  C318  1  0.72951735  0.95812535  0.30824718  1
  C  C319  1  0.70634367  0.94141790  0.29927512  1
  C  C320  1  0.69597341  0.91685398  0.31069985  1
  C  C321  1  0.76109794  0.00162288  0.30442379  1
  C  C322  1  0.76372807  0.02743851  0.28836170  1
  C  C323  1  0.78333754  0.02533123  0.27084754  1
  C  C324  1  0.78555176  0.04977547  0.25606165  1
  C  C325  1  0.76636755  0.07479392  0.25721440  1
  C  C326  1  0.74553988  0.07557821  0.27379576  1
  C  C327  1  0.74550774  0.05331969  0.29049557  1
  C  C328  1  0.72748832  0.05614122  0.31078314  1
  C  C329  1  0.80329465  -0.00147051  0.26867063  1
  C  C330  1  0.76893588  0.09958208  0.24047670  1
  C  C331  1  0.80701544  0.04926364  0.23783231  1
  C  C332  1  0.80546163  0.04638037  0.19722867  1
  C  C333  1  0.83527592  0.04975272  0.19671777  1
  C  C334  1  0.84821593  0.05247556  0.17617963  1
  C  C335  1  0.83176640  0.05147866  0.15597374  1
  C  C336  1  0.80190908  0.04674166  0.15685762  1
  C  C337  1  0.78878111  0.04451054  0.17730089  1
  C  C338  1  0.84534227  0.05458116  0.13412859  1
  C  C339  1  0.87167477  0.06492130  0.13303760  1
  C  C340  1  0.72520116  0.10229385  0.27372676  1
  C  C341  1  0.72709129  0.15322977  0.28765593  1
  C  C342  1  0.69885218  0.15948873  0.27989854  1
  C  C343  1  0.68324431  0.18209930  0.29042734  1
  C  C344  1  0.69603623  0.20020156  0.30769205  1
  C  C345  1  0.72582190  0.19568500  0.31307609  1
  C  C346  1  0.74117108  0.17232179  0.30309954  1
  C  C347  1  0.67902148  0.22282670  0.31899400  1
  C  C348  1  0.68992983  0.24234406  0.33485115  1
  C  C349  1  0.82365151  0.69481464  0.68657940  1
  C  C350  1  0.83750762  0.68120953  0.70443070  1
  C  C351  1  0.86770995  0.68467806  0.71023285  1
  C  C352  1  0.88093937  0.66851466  0.72825501  1
  C  C353  1  0.90966349  0.67250219  0.73461973  1
  C  C354  1  0.92571788  0.69364801  0.72339218  1
  C  C355  1  0.91382772  0.70835619  0.70460002  1
  C  C356  1  0.88543064  0.70330847  0.69770964  1
  C  C357  1  0.96565798  0.69399748  0.75123286  1
  C  C358  1  0.99259948  0.71235901  0.75402193  1
  C  C359  1  0.01719610  0.70243019  0.74257448  1
  C  C360  1  0.04250627  0.71961952  0.74450118  1
  C  C361  1  0.04232876  0.74797309  0.75612024  1
  C  C362  1  0.01687364  0.75876665  0.76613115  1
  C  C363  1  0.99198886  0.74062061  0.76547930  1
  C  C364  1  0.96425230  0.75044740  0.77574605  1
  C  C365  1  0.01600482  0.67333533  0.72922307  1
  C  C366  1  0.06981243  0.76538412  0.75655739  1
  C  C367  1  0.07008274  0.70742274  0.73481765  1
  C  C368  1  0.10202644  0.71573866  0.70412380  1
  C  C369  1  0.12019578  0.69147392  0.71024562  1
  C  C370  1  0.14498896  0.68517572  0.69841893  1
  C  C371  1  0.15263643  0.70264219  0.67994910  1
  C  C372  1  0.13329320  0.72640530  0.67377392  1
  C  C373  1  0.10851992  0.73279737  0.68550648  1
  C  C374  1  0.17832977  0.69636154  0.66709806  1
  C  C375  1  0.20086572  0.67792253  0.67344786  1
  C  C376  1  0.01551532  0.78992914  0.77713267  1
  C  C377  1  0.01580629  0.81291847  0.81471528  1
  C  C378  1  0.00973591  0.84183149  0.80648182  1
  C  C379  1  0.00476890  0.86584366  0.82126737  1
  C  C380  1  0.00712551  0.86278349  0.84481998  1
  C  C381  1  0.01419585  0.83341050  0.85269065  1
  C  C382  1  0.01825656  0.80904222  0.83794598  1
  C  C383  1  0.00324543  0.88938315  0.85931423  1
  C  C384  1  0.00480928  0.89042127  0.88210357  1
  C  C385  1  0.36416702  0.81332467  0.31727092  1
  C  C386  1  0.34135041  0.82918812  0.32552028  1
  C  C387  1  0.33408685  0.85990920  0.31987313  1
  C  C388  1  0.30752588  0.87325199  0.32584581  1
  C  C389  1  0.30034203  0.90266809  0.32004494  1
  C  C390  1  0.31966631  0.91922356  0.30785228  1
  C  C391  1  0.34699836  0.90750053  0.30336178  1
  C  C392  1  0.35431804  0.87823943  0.30958343  1
  C  C393  1  0.28417577  0.95856569  0.29860300  1
  C  C394  1  0.28472982  0.98694853  0.28514458  1
  C  C395  1  0.29619584  0.01304705  0.29587193  1
  C  C396  1  0.29770742  0.03985493  0.28357290  1
  C  C397  1  0.29048515  0.03973278  0.26023944  1
  C  C398  1  0.28125793  0.01273413  0.24930036  1
  C  C399  1  0.27746003  0.98633104  0.26189125  1
  C  C400  1  0.26683088  0.95709738  0.25168799  1
  C  C401  1  0.30571071  0.01200065  0.32020876  1
  C  C402  1  0.29393560  0.06891127  0.24823265  1
  C  C403  1  0.30727901  0.06870797  0.29519488  1
  C  C404  1  0.34839323  0.10169675  0.29781972  1
  C  C405  1  0.33526171  0.12001578  0.31387070  1
  C  C406  1  0.34833200  0.14662046  0.32131250  1
  C  C407  1  0.37443554  0.15641770  0.31255456  1
  C  C408  1  0.38809654  0.13639911  0.29742159  1
  C  C409  1  0.37548207  0.10937608  0.29036859  1
  C  C410  1  0.38735294  0.18492091  0.31971387  1
  C  C411  1  0.37373300  0.20613485  0.33241376  1
  C  C412  1  0.27511983  0.01202545  0.22418501  1
  C  C413  1  0.23225739  0.01626356  0.19874301  1
  C  C414  1  0.24691281  0.01175347  0.17885915  1
  C  C415  1  0.23150539  0.00870171  0.15846225  1
  C  C416  1  0.20095751  0.00955890  0.15695821  1
  C  C417  1  0.18687501  0.01345326  0.17743748  1
  C  C418  1  0.20215473  0.01806408  0.19768536  1
  C  C419  1  0.18452630  0.00838598  0.13563262  1
  C  C420  1  0.15600886  1.00130777  0.13399600  1
  C  C421  1  0.66087858  0.47933471  0.58346210  1
  C  C422  1  0.68661488  0.46882105  0.57367285  1
  C  C423  1  0.68561331  0.46620695  0.54991317  1
  C  C424  1  0.66191831  0.47617753  0.53686060  1
  C  C425  1  0.63738219  0.48813201  0.54700221  1
  C  C426  1  0.63662129  0.48649851  0.57052875  1
  C  C427  1  0.71080668  0.46090412  0.58741454  1
  C  C428  1  0.73115918  0.45377244  0.60011140  1
  C  C429  1  0.75318149  0.44580926  0.61404534  1
  C  C430  1  0.77339808  0.43833629  0.62677326  1
  C  C431  1  0.79683310  0.42916450  0.64077796  1
  C  C432  1  0.82151400  0.41438106  0.63197235  1
  C  C433  1  0.84457736  0.40512136  0.64550793  1
  C  C434  1  0.84537282  0.41034242  0.66903822  1
  C  C435  1  0.82101241  0.42540011  0.67786481  1
  C  C436  1  0.79748220  0.43379409  0.66442042  1
  C  C437  1  0.57269348  0.41826838  0.42369802  1
  C  C438  1  0.60249160  0.42603464  0.42576890  1
  C  C439  1  0.61096659  0.45407819  0.43540722  1
  C  C440  1  0.59105808  0.47122734  0.44670899  1
  C  C441  1  0.56362168  0.45886184  0.44940457  1
  C  C442  1  0.55333144  0.43586217  0.43463090  1
  C  C443  1  0.62044663  0.40479753  0.41612578  1
  C  C444  1  0.62523963  0.38097107  0.40592874  1
  C  C445  1  0.62886562  0.35570640  0.39410193  1
  C  C446  1  0.63207760  0.33281034  0.38257635  1
  C  C447  1  0.64340704  0.31130103  0.36819610  1
  C  C448  1  0.66987566  0.31811338  0.35801106  1
  C  C449  1  0.68442805  0.29588452  0.34689029  1
  C  C450  1  0.67280709  0.26652108  0.34440564  1
  C  C451  1  0.64425735  0.26158050  0.35108918  1
  C  C452  1  0.63000790  0.28335325  0.36314730  1
  C  C453  1  0.41216410  0.60984817  0.57905340  1
  C  C454  1  0.38285555  0.60403513  0.57305430  1
  C  C455  1  0.37789197  0.58973345  0.55182847  1
  C  C456  1  0.40028502  0.57950152  0.53889897  1
  C  C457  1  0.42931664  0.58428164  0.54555075  1
  C  C458  1  0.43437172  0.60206910  0.56506871  1
  C  C459  1  0.35996979  0.61245669  0.58679521  1
  C  C460  1  0.33957296  0.62033417  0.59817858  1
  C  C461  1  0.31717153  0.62930220  0.61026442  1
  C  C462  1  0.29658672  0.63771689  0.62126018  1
  C  C463  1  0.27303622  0.64801986  0.63357261  1
  C  C464  1  0.24393388  0.64513234  0.62551301  1
  C  C465  1  0.22096438  0.65582020  0.63754356  1
  C  C466  1  0.22493652  0.66892336  0.65924206  1
  C  C467  1  0.25384152  0.67169883  0.66737178  1
  C  C468  1  0.27687412  0.66234431  0.65494413  1
  C  C469  1  0.58285839  0.68814912  0.46277379  1
  C  C470  1  0.59982767  0.68326994  0.44375014  1
  C  C471  1  0.60823346  0.65276370  0.43941427  1
  C  C472  1  0.59888978  0.62910064  0.45205293  1
  C  C473  1  0.57979547  0.63412368  0.46947076  1
  C  C474  1  0.57279207  0.66435369  0.47495907  1
  C  C475  1  0.60844345  0.70702421  0.43019792  1
  C  C476  1  0.61639597  0.72723794  0.41808121  1
  C  C477  1  0.62531305  0.74916944  0.40490326  1
  C  C478  1  0.63359822  0.76928165  0.39283127  1
  C  C479  1  0.64386983  0.79222245  0.37934198  1
  C  C480  1  0.66019728  0.78569922  0.36013913  1
  C  C481  1  0.66999822  0.80820618  0.34678743  1
  C  C482  1  0.66588833  0.83925414  0.35210489  1
  C  C483  1  0.64992924  0.84595664  0.37135710  1
  C  C484  1  0.63873071  0.82344651  0.38403751  1
  C  C485  1  0.45319871  0.38551873  0.46736160  1
  C  C486  1  0.45473053  0.38639390  0.44368088  1
  C  C487  1  0.46453280  0.41369363  0.43462030  1
  C  C488  1  0.47256301  0.43763053  0.44832799  1
  C  C489  1  0.47594416  0.43422715  0.47173699  1
  C  C490  1  0.46417885  0.40855372  0.48111493  1
  C  C491  1  0.44620159  0.36247354  0.42930122  1
  C  C492  1  0.43835273  0.34232780  0.41619184  1
  C  C493  1  0.42950806  0.32063161  0.40179785  1
  C  C494  1  0.42099682  0.30070912  0.38873496  1
  C  C495  1  0.41030100  0.27769438  0.37444656  1
  C  C496  1  0.41418176  0.27718818  0.35095564  1
  C  C497  1  0.40373190  0.25407649  0.33728128  1
  C  C498  1  0.38751154  0.23040787  0.34594608  1
  C  C499  1  0.38319420  0.23111397  0.36926326  1
  C  C500  1  0.39462461  0.25338514  0.38306288  1
  C  C501  1  0.42536066  0.50585481  0.59920231  1
  C  C502  1  0.41731705  0.47520027  0.59552515  1
  C  C503  1  0.43660579  0.45482070  0.58475634  1
  C  C504  1  0.45914245  0.46610066  0.57340688  1
  C  C505  1  0.46124782  0.49770297  0.57235039  1
  C  C506  1  0.44926510  0.51599982  0.58933459  1
  C  C507  1  0.39173857  0.46571162  0.60412567  1
  C  C508  1  0.37028368  0.45754876  0.61345156  1
  C  C509  1  0.34895298  0.44866693  0.62584847  1
  C  C510  1  0.33066792  0.43975893  0.63823821  1
  C  C511  1  0.31092240  0.42869091  0.65279615  1
  C  C512  1  0.30870640  0.39699198  0.65587296  1
  C  C513  1  0.28832269  0.38598901  0.66933658  1
  C  C514  1  0.26896670  0.40597032  0.68031489  1
  C  C515  1  0.27208400  0.43767811  0.67796855  1
  C  C516  1  0.29305619  0.44874106  0.66503057  1
  C  C517  1  0.46484818  0.61077692  0.41479734  1
  C  C518  1  0.46003554  0.64096595  0.42245781  1
  C  C519  1  0.46125550  0.64760258  0.44588979  1
  C  C520  1  0.47261369  0.62643328  0.46024174  1
  C  C521  1  0.48529111  0.60016894  0.45099462  1
  C  C522  1  0.47661717  0.58991712  0.42943526  1
  C  C523  1  0.45225221  0.66408295  0.40791569  1
  C  C524  1  0.44351465  0.68459958  0.39584870  1
  C  C525  1  0.43125882  0.70639325  0.38356642  1
  C  C526  1  0.41888874  0.72570815  0.37221186  1
  C  C527  1  0.40441741  0.74683634  0.35880983  1
  C  C528  1  0.39593264  0.77541823  0.36764323  1
  C  C529  1  0.38280747  0.79637436  0.35390216  1
  C  C530  1  0.37828661  0.79024595  0.33059582  1
  C  C531  1  0.38628712  0.76142591  0.32190698  1
  C  C532  1  0.39771577  0.73979128  0.33588827  1
  C  C533  1  0.62613128  0.57550543  0.60412599  1
  C  C534  1  0.64321156  0.59840859  0.59507511  1
  C  C535  1  0.63187482  0.61548037  0.57661145  1
  C  C536  1  0.60859981  0.60471635  0.56437199  1
  C  C537  1  0.59744171  0.57676239  0.57041196  1
  C  C538  1  0.60179854  0.56638476  0.59249086  1
  C  C539  1  0.66974897  0.60541512  0.60507085  1
  C  C540  1  0.69219004  0.61388263  0.61437695  1
  C  C541  1  0.71443751  0.62633477  0.62545622  1
  C  C542  1  0.73352356  0.63917436  0.63639305  1
  C  C543  1  0.75424705  0.65442681  0.64937776  1
  C  C544  1  0.76516841  0.68260075  0.64279950  1
  C  C545  1  0.78691424  0.69610769  0.65523469  1
  C  C546  1  0.79893161  0.68230797  0.67488206  1
  C  C547  1  0.78625621  0.65537934  0.68234863  1
  C  C548  1  0.76432557  0.64206039  0.67007786  1
  C  C549  1  0.95564068  0.05640533  0.07499288  1
  C  C550  1  0.97586632  0.03294514  0.08228072  1
  C  C551  1  0.96993002  0.01494839  0.10028440  1
  C  C552  1  0.94383571  0.01903950  0.11195789  1
  C  C553  1  0.92613791  0.04164740  0.10547532  1
  C  C554  1  0.92977443  0.06096814  0.08726809  1
  C  C555  1  0.95976089  0.07639075  0.05726219  1
  C  C556  1  0.93898634  0.09804599  0.05105695  1
  C  C557  1  0.91390625  0.10242556  0.06330534  1
  C  C558  1  0.90945886  0.08423469  0.08136012  1
  C  C559  1  0.01490495  0.10744949  0.92520465  1
  C  C560  1  0.03730399  0.08503215  0.92975176  1
  C  C561  1  0.06563723  0.09092280  0.92543666  1
  C  C562  1  0.07329226  0.11904752  0.91592074  1
  C  C563  1  0.05199828  0.13856685  0.91052947  1
  C  C564  1  0.02265999  0.13529630  0.91498339  1
  C  C565  1  0.98564486  0.10377615  0.92980311  1
  C  C566  1  0.96505368  0.12599532  0.92447371  1
  C  C567  1  0.97276419  0.15303076  0.91424458  1
  C  C568  1  0.00124712  0.15776602  0.90976006  1
  C  C569  1  0.08520532  0.03443610  0.11093863  1
  C  C570  1  0.08363074  0.02244763  0.08840373  1
  C  C571  1  0.10830204  0.00803123  0.08029656  1
  C  C572  1  0.13299082  0.00238910  0.09397157  1
  C  C573  1  0.13424611  0.01068284  0.11673628  1
  C  C574  1  0.11042159  0.02841694  0.12480549  1
  C  C575  1  0.06314735  0.05304592  0.11978977  1
  C  C576  1  0.06370587  0.06136897  0.14231441  1
  C  C577  1  0.08841151  0.05534810  0.15589374  1
  C  C578  1  0.11213469  0.04114171  0.14667029  1
  C  C579  1  0.98612721  0.96123027  0.91779080  1
  C  C580  1  0.01427338  0.97344692  0.92213356  1
  C  C581  1  0.03784964  0.95820201  0.91332611  1
  C  C582  1  0.03460117  0.93144054  0.90074330  1
  C  C583  1  0.00765064  0.91883665  0.89551786  1
  C  C584  1  0.98289335  0.93413238  0.90434649  1
  C  C585  1  0.96117920  0.97570484  0.92598994  1
  C  C586  1  0.93396163  0.96407180  0.92156449  1
  C  C587  1  0.93075168  0.93767302  0.90838201  1
  C  C588  1  0.95481435  0.92311988  0.89990019  1
  O  O589  1  0.05546905  0.05180224  0.00631493  1
  O  O590  1  0.99256819  0.00880822  0.00374031  1
  O  O591  1  0.99746781  0.34519275  0.71440828  1
  O  O592  1  0.08091380  0.27862740  0.79173873  1
  O  O593  1  0.12034252  0.36491887  0.72269397  1
  O  O594  1  0.73786998  0.98207270  0.29606232  1
  O  O595  1  0.74222146  0.12858914  0.28034504  1
  O  O596  1  0.79111755  0.04419448  0.21656789  1
  O  O597  1  0.95373743  0.70010038  0.72875154  1
  O  O598  1  0.02015466  0.78797500  0.80143338  1
  O  O599  1  0.07783490  0.72413784  0.71506292  1
  O  O600  1  0.31406421  0.94788405  0.30079291  1
  O  O601  1  0.24511964  0.02089319  0.21943548  1
  O  O602  1  0.33650567  0.07588319  0.28909937  1
