# generated using pymatgen
data_Mg2CuH268C268N4(ClO14)2
_symmetry_space_group_name_H-M   'P 1'
_cell_length_a   72.25742229
_cell_length_b   72.34017558
_cell_length_c   31.04981995
_cell_angle_alpha   89.97715630
_cell_angle_beta   90.34580911
_cell_angle_gamma   80.07848751
_symmetry_Int_Tables_number   1
_chemical_formula_structural   Mg2CuH268C268N4(ClO14)2
_chemical_formula_sum   'Mg2 Cu1 H268 C268 N4 Cl2 O28'
_cell_volume   159870.62619417
_cell_formula_units_Z   1
loop_
 _symmetry_equiv_pos_site_id
 _symmetry_equiv_pos_as_xyz
  1  'x, y, z'
loop_
 _atom_site_type_symbol
 _atom_site_label
 _atom_site_symmetry_multiplicity
 _atom_site_fract_x
 _atom_site_fract_y
 _atom_site_fract_z
 _atom_site_occupancy
  Mg  Mg0  1  0.00597887  0.50937507  0.99978913  1
  Mg  Mg1  1  0.51305817  0.00508958  0.00661854  1
  Cu  Cu2  1  0.50705308  0.50720601  0.50849322  1
  H  H3  1  0.44074810  0.50036132  0.55609816  1
  H  H4  1  0.47604048  0.49291491  0.55786975  1
  H  H5  1  0.47951002  0.51701581  0.43786135  1
  H  H6  1  0.44507120  0.53193720  0.44004751  1
  H  H7  1  0.50797213  0.44256680  0.44215186  1
  H  H8  1  0.50315080  0.47810886  0.44209926  1
  H  H9  1  0.52713574  0.47856604  0.56393410  1
  H  H10  1  0.54103985  0.44391684  0.55764504  1
  H  H11  1  0.53374539  0.49559363  0.43894022  1
  H  H12  1  0.56857068  0.48138598  0.44073063  1
  H  H13  1  0.57380272  0.51516594  0.55284685  1
  H  H14  1  0.53857508  0.52243967  0.55530708  1
  H  H15  1  0.48554761  0.53720573  0.56083897  1
  H  H16  1  0.47462135  0.57196999  0.55477420  1
  H  H17  1  0.50924897  0.57141567  0.44242371  1
  H  H18  1  0.51435011  0.53629556  0.44543052  1
  H  H19  1  0.08222421  0.59067639  0.22227591  1
  H  H20  1  0.09742804  0.54898294  0.23639087  1
  H  H21  1  0.10745893  0.53776265  0.30522165  1
  H  H22  1  0.12694064  0.54056578  0.36911488  1
  H  H23  1  0.12006214  0.60041090  0.34849817  1
  H  H24  1  0.10198365  0.59727566  0.28173176  1
  H  H25  1  0.14893367  0.54636413  0.40987683  1
  H  H26  1  0.12713105  0.55170586  0.43680853  1
  H  H27  1  0.11139674  0.57824028  0.53061557  1
  H  H28  1  0.11615068  0.55638538  0.50437657  1
  H  H29  1  0.11131507  0.57727323  0.47361268  1
  H  H30  1  0.17183615  0.55618783  0.39616590  1
  H  H31  1  0.18637090  0.54038576  0.43085665  1
  H  H32  1  0.19218264  0.56257705  0.41849151  1
  H  H33  1  0.16973774  0.59114389  0.59820109  1
  H  H34  1  0.18596423  0.59734159  0.56003650  1
  H  H35  1  0.18991817  0.57496486  0.58454757  1
  H  H36  1  0.20606316  0.56298870  0.53060332  1
  H  H37  1  0.20602107  0.55869002  0.47437344  1
  H  H38  1  0.23364889  0.55817902  0.49089113  1
  H  H39  1  0.26632607  0.56272325  0.48350620  1
  H  H40  1  0.24851721  0.62279585  0.47841834  1
  H  H41  1  0.21531858  0.61803252  0.47797200  1
  H  H42  1  0.28505712  0.60669194  0.48355072  1
  H  H43  1  0.28499769  0.56954455  0.53235424  1
  H  H44  1  0.14297402  0.60372443  0.57924975  1
  H  H45  1  0.12256660  0.59472243  0.56504822  1
  H  H46  1  0.12066550  0.61259100  0.63005109  1
  H  H47  1  0.09622746  0.61769430  0.68583532  1
  H  H48  1  0.11281210  0.56032441  0.72818183  1
  H  H49  1  0.13480971  0.55434732  0.66672374  1
  H  H50  1  0.08285851  0.60695560  0.75229449  1
  H  H51  1  0.08338042  0.56457278  0.75482518  1
  H  H52  1  0.57187787  0.09159509  0.22745178  1
  H  H53  1  0.61323626  0.07495481  0.24494388  1
  H  H54  1  0.62870542  0.08429655  0.30797303  1
  H  H55  1  0.62906831  0.10351784  0.37296926  1
  H  H56  1  0.57036031  0.12631823  0.35332684  1
  H  H57  1  0.56984204  0.10660283  0.28850017  1
  H  H58  1  0.62599228  0.13024868  0.41661843  1
  H  H59  1  0.61849404  0.11103867  0.44260484  1
  H  H60  1  0.59165752  0.10635890  0.53652600  1
  H  H61  1  0.61371525  0.10246131  0.51108687  1
  H  H62  1  0.59291291  0.10552432  0.47961483  1
  H  H63  1  0.61420781  0.15704943  0.39846006  1
  H  H64  1  0.63084590  0.16580731  0.43140586  1
  H  H65  1  0.60883037  0.17986620  0.41951116  1
  H  H66  1  0.57948897  0.17021156  0.59949916  1
  H  H67  1  0.57435820  0.18795715  0.55948342  1
  H  H68  1  0.59644350  0.18388808  0.58564153  1
  H  H69  1  0.60732297  0.19564080  0.53002591  1
  H  H70  1  0.61154443  0.19385121  0.47380395  1
  H  H71  1  0.60980860  0.22256030  0.49901532  1
  H  H72  1  0.60270054  0.25684538  0.50358310  1
  H  H73  1  0.54395731  0.25550974  0.47903536  1
  H  H74  1  0.55098454  0.22061560  0.47871125  1
  H  H75  1  0.55338546  0.28523599  0.49005603  1
  H  H76  1  0.59555876  0.28707879  0.50440160  1
  H  H77  1  0.56862928  0.14772515  0.58534932  1
  H  H78  1  0.57602682  0.12397777  0.57171072  1
  H  H79  1  0.55851200  0.13312657  0.63853297  1
  H  H80  1  0.55063305  0.10955649  0.68955919  1
  H  H81  1  0.60884067  0.09708731  0.72932660  1
  H  H82  1  0.61702596  0.11782103  0.67148986  1
  H  H83  1  0.55998195  0.08425053  0.73899590  1
  H  H84  1  0.59925391  0.07753929  0.77895613  1
  H  H85  1  0.92562847  0.44952714  0.77674029  1
  H  H86  1  0.94245161  0.40800429  0.75895425  1
  H  H87  1  0.93127221  0.39280264  0.69980947  1
  H  H88  1  0.91129643  0.39229093  0.63585859  1
  H  H89  1  0.88786583  0.45064234  0.65598295  1
  H  H90  1  0.90755321  0.45114275  0.72094625  1
  H  H91  1  0.88479139  0.39508768  0.59313753  1
  H  H92  1  0.90392906  0.40260360  0.56695253  1
  H  H93  1  0.90826751  0.42903261  0.47182744  1
  H  H94  1  0.91234870  0.40704555  0.49786503  1
  H  H95  1  0.90922891  0.42789718  0.52876920  1
  H  H96  1  0.85793052  0.40584103  0.61009181  1
  H  H97  1  0.84934319  0.38917339  0.57707889  1
  H  H98  1  0.83511202  0.41106422  0.58854154  1
  H  H99  1  0.84420317  0.44047533  0.40827029  1
  H  H100  1  0.82658526  0.44549119  0.44827662  1
  H  H101  1  0.83070436  0.42341388  0.42257730  1
  H  H102  1  0.81939544  0.41202828  0.47791023  1
  H  H103  1  0.82135019  0.40790390  0.53422546  1
  H  H104  1  0.79239220  0.40948500  0.50934235  1
  H  H105  1  0.75802514  0.41645347  0.50636867  1
  H  H106  1  0.75946705  0.47545219  0.52556871  1
  H  H107  1  0.79441365  0.46838162  0.52654373  1
  H  H108  1  0.72996343  0.46615602  0.51800605  1
  H  H109  1  0.72766380  0.42412339  0.50235523  1
  H  H110  1  0.86669128  0.45162775  0.42184795  1
  H  H111  1  0.89040091  0.44486758  0.43730559  1
  H  H112  1  0.88238731  0.46186789  0.36926003  1
  H  H113  1  0.90434469  0.46944079  0.31423926  1
  H  H114  1  0.91620913  0.41108937  0.27726609  1
  H  H115  1  0.89687986  0.40319839  0.33807267  1
  H  H116  1  0.92537246  0.46052524  0.25609138  1
  H  H117  1  0.93989371  0.41923477  0.23632503  1
  H  H118  1  0.42300982  0.93319037  0.76035547  1
  H  H119  1  0.46537481  0.93052722  0.74647256  1
  H  H120  1  0.48099367  0.90935959  0.69286114  1
  H  H121  1  0.48000604  0.88804389  0.63156014  1
  H  H122  1  0.42007817  0.89252602  0.64665813  1
  H  H123  1  0.42131790  0.91246195  0.71095316  1
  H  H124  1  0.47506082  0.86559586  0.58596608  1
  H  H125  1  0.46895939  0.88778767  0.56062687  1
  H  H126  1  0.44208416  0.90388998  0.46674177  1
  H  H127  1  0.46406853  0.89905423  0.49293980  1
  H  H128  1  0.44325331  0.90357701  0.52372553  1
  H  H129  1  0.46349994  0.84321025  0.60154141  1
  H  H130  1  0.47904129  0.82807483  0.56787640  1
  H  H131  1  0.45639504  0.82322670  0.57941226  1
  H  H132  1  0.42838212  0.84568082  0.39916057  1
  H  H133  1  0.42220882  0.82969779  0.43800506  1
  H  H134  1  0.44444237  0.82539332  0.41318776  1
  H  H135  1  0.45629817  0.80918181  0.46726737  1
  H  H136  1  0.46070023  0.80914199  0.52353034  1
  H  H137  1  0.46052548  0.78166909  0.50621925  1
  H  H138  1  0.45536918  0.74927474  0.51326763  1
  H  H139  1  0.39533866  0.76834114  0.52010031  1
  H  H140  1  0.40085175  0.80128305  0.51938399  1
  H  H141  1  0.41052026  0.73197543  0.52049622  1
  H  H142  1  0.44727938  0.72859673  0.46977553  1
  H  H143  1  0.41725362  0.87242584  0.41539582  1
  H  H144  1  0.42569352  0.89285162  0.43161134  1
  H  H145  1  0.40894716  0.89612933  0.36562782  1
  H  H146  1  0.40439176  0.91957187  0.30758597  1
  H  H147  1  0.46199180  0.90181384  0.26829106  1
  H  H148  1  0.46718537  0.88051884  0.33092847  1
  H  H149  1  0.41514254  0.93443796  0.24681260  1
  H  H150  1  0.45754176  0.92594810  0.22640137  1
  H  H151  1  0.35660252  0.57091433  0.56191454  1
  H  H152  1  0.37668243  0.53876858  0.56954143  1
  H  H153  1  0.37392567  0.58952925  0.51232324  1
  H  H154  1  0.37937305  0.57471457  0.43455607  1
  H  H155  1  0.34598622  0.53685931  0.45543533  1
  H  H156  1  0.37882454  0.54000046  0.43222929  1
  H  H157  1  0.57326274  0.37488073  0.43643621  1
  H  H158  1  0.53828847  0.37610702  0.44049036  1
  H  H159  1  0.59068170  0.37034420  0.51168326  1
  H  H160  1  0.57252331  0.35645045  0.56880694  1
  H  H161  1  0.53429169  0.34458978  0.47102234  1
  H  H162  1  0.54131913  0.37828017  0.57762143  1
  H  H163  1  0.66483995  0.47042429  0.43446476  1
  H  H164  1  0.63164898  0.46351990  0.43488210  1
  H  H165  1  0.64126172  0.49242298  0.55076602  1
  H  H166  1  0.66279512  0.46219133  0.57065208  1
  H  H167  1  0.63474062  0.43306491  0.47611788  1
  H  H168  1  0.64445610  0.43602092  0.55788312  1
  H  H169  1  0.47882610  0.66987781  0.45508551  1
  H  H170  1  0.48172295  0.63859512  0.56970774  1
  H  H171  1  0.47348102  0.63745559  0.43367215  1
  H  H172  1  0.43908084  0.63721130  0.44549071  1
  H  H173  1  0.44991277  0.65996107  0.57027867  1
  H  H174  1  0.42842531  0.64323707  0.52642919  1
  H  H175  1  0.02121031  0.55225422  0.90328218  1
  H  H176  1  0.04233885  0.54175551  0.92870411  1
  H  H177  1  0.09542489  0.57452789  0.83235718  1
  H  H178  1  0.07787926  0.59445482  0.82768055  1
  H  H179  1  0.05294397  0.57501066  0.82833785  1
  H  H180  1  0.06826849  0.56998320  0.87248988  1
  H  H181  1  0.08635522  0.54273007  0.82257579  1
  H  H182  1  0.06527138  0.54579650  0.79263649  1
  H  H183  1  0.06882372  0.52029857  0.85037797  1
  H  H184  1  0.06860962  0.53762072  0.88978841  1
  H  H185  1  0.03710044  0.52560974  0.84235508  1
  H  H186  1  0.03540096  0.54986549  0.83902967  1
  H  H187  1  0.52656209  0.02172084  0.88043535  1
  H  H188  1  0.52045518  0.04461721  0.90060602  1
  H  H189  1  0.58503021  0.08511167  0.84845292  1
  H  H190  1  0.56316785  0.09425415  0.82461454  1
  H  H191  1  0.57098540  0.05290776  0.81579350  1
  H  H192  1  0.55129826  0.06840575  0.83458648  1
  H  H193  1  0.57574681  0.07039577  0.90255405  1
  H  H194  1  0.58362302  0.04714897  0.88609675  1
  H  H195  1  0.55760326  0.05403973  0.94534139  1
  H  H196  1  0.54231305  0.06348295  0.90412231  1
  H  H197  1  0.55978567  0.02281285  0.92119532  1
  H  H198  1  0.55499445  0.02919328  0.86752565  1
  H  H199  1  0.98153335  0.50214800  0.12757112  1
  H  H200  1  0.96468396  0.49414688  0.09432116  1
  H  H201  1  0.93493419  0.42679379  0.16027529  1
  H  H202  1  0.91862532  0.44688140  0.17365953  1
  H  H203  1  0.94944590  0.46168291  0.19304909  1
  H  H204  1  0.93869140  0.46204007  0.14224959  1
  H  H205  1  0.96276226  0.43068767  0.12721095  1
  H  H206  1  0.97580874  0.43802077  0.16996373  1
  H  H207  1  0.98342550  0.44857351  0.09265913  1
  H  H208  1  0.96106812  0.46225533  0.09141316  1
  H  H209  1  0.99520148  0.46767270  0.14474975  1
  H  H210  1  0.97295920  0.47668999  0.16532836  1
  H  H211  1  0.49247793  0.99301600  0.13245174  1
  H  H212  1  0.47192783  0.99000877  0.10436458  1
  H  H213  1  0.43309970  0.93214933  0.15574287  1
  H  H214  1  0.42359996  0.95193316  0.18575051  1
  H  H215  1  0.45565129  0.96262054  0.18410834  1
  H  H216  1  0.44308974  0.96245861  0.13555161  1
  H  H217  1  0.46338027  0.92890445  0.12310644  1
  H  H218  1  0.47845243  0.93513480  0.16304897  1
  H  H219  1  0.48589923  0.93999088  0.08298051  1
  H  H220  1  0.46714508  0.95889271  0.08143369  1
  H  H221  1  0.50563308  0.95823593  0.10516168  1
  H  H222  1  0.49314887  0.96289561  0.15312790  1
  H  H223  1  0.51561867  0.04577932  0.07758955  1
  H  H224  1  0.52281885  0.04193442  0.13205096  1
  H  H225  1  0.59490277  0.05229162  0.20920701  1
  H  H226  1  0.57657587  0.05403817  0.24624346  1
  H  H227  1  0.55656340  0.07222011  0.17747960  1
  H  H228  1  0.55818481  0.04890899  0.19422308  1
  H  H229  1  0.58860700  0.04307839  0.14290473  1
  H  H230  1  0.57657670  0.06300530  0.11614504  1
  H  H231  1  0.57176007  0.02921956  0.09277549  1
  H  H232  1  0.55855721  0.02872269  0.13942637  1
  H  H233  1  0.54813945  0.04636446  0.05483705  1
  H  H234  1  0.54162196  0.06258260  0.09679994  1
  H  H235  1  0.02261342  0.55350081  0.06459524  1
  H  H236  1  0.02581712  0.54973661  0.12068535  1
  H  H237  1  0.06131556  0.55700417  0.22878709  1
  H  H238  1  0.05108164  0.58100180  0.22677710  1
  H  H239  1  0.05876863  0.58273079  0.14948361  1
  H  H240  1  0.04405734  0.56637034  0.16096751  1
  H  H241  1  0.08411038  0.54835475  0.16008054  1
  H  H242  1  0.07764805  0.56050002  0.11194163  1
  H  H243  1  0.07601594  0.52585348  0.11306435  1
  H  H244  1  0.05673596  0.53022233  0.14815553  1
  H  H245  1  0.05451251  0.52791697  0.06009348  1
  H  H246  1  0.05434362  0.55200136  0.06386739  1
  H  H247  1  0.98325315  0.50293808  0.87338748  1
  H  H248  1  0.99208398  0.47898924  0.88276176  1
  H  H249  1  0.94462052  0.42565881  0.84146863  1
  H  H250  1  0.96255855  0.42456491  0.80352744  1
  H  H251  1  0.95506108  0.46278052  0.81074723  1
  H  H252  1  0.97108277  0.44722156  0.84175167  1
  H  H253  1  0.94173753  0.44710228  0.89434039  1
  H  H254  1  0.93316105  0.46884385  0.87009351  1
  H  H255  1  0.95263778  0.46820426  0.94062947  1
  H  H256  1  0.97256943  0.45857192  0.91134463  1
  H  H257  1  0.95454560  0.49757540  0.92157898  1
  H  H258  1  0.95495760  0.49223839  0.86662148  1
  H  H259  1  0.49988211  0.97408814  0.87275680  1
  H  H260  1  0.49450843  0.96574784  0.92420339  1
  H  H261  1  0.42809700  0.93380161  0.83575985  1
  H  H262  1  0.44892665  0.91766011  0.82881278  1
  H  H263  1  0.45714065  0.95472984  0.80710025  1
  H  H264  1  0.46692749  0.93816683  0.84574250  1
  H  H265  1  0.43527885  0.95168740  0.88972346  1
  H  H266  1  0.43556238  0.97166319  0.85760383  1
  H  H267  1  0.45236985  0.96921016  0.93275117  1
  H  H268  1  0.46928706  0.95174464  0.91036443  1
  H  H269  1  0.46258101  0.99360811  0.89876903  1
  H  H270  1  0.46938341  0.98145142  0.85129523  1
  C  C271  1  0.99296532  0.48932394  0.07074501  1
  C  C272  1  0.02203121  0.52354009  0.91725276  1
  C  C273  1  0.01960304  0.52590280  0.08309456  1
  C  C274  1  0.98941906  0.49733465  0.93817488  1
  C  C275  1  0.49436603  0.99592791  0.92006534  1
  C  C276  1  0.52933817  0.01759331  0.09020820  1
  C  C277  1  0.52527982  0.02244717  0.94735561  1
  C  C278  1  0.49632829  0.99111061  0.06620933  1
  C  C279  1  0.43982701  0.51729080  0.49842146  1
  C  C280  1  0.44906668  0.50558767  0.53108915  1
  C  C281  1  0.46855302  0.50106976  0.53156004  1
  C  C282  1  0.47051426  0.51559848  0.46605592  1
  C  C283  1  0.45133390  0.52255204  0.46572136  1
  C  C284  1  0.52397934  0.44006674  0.50166255  1
  C  C285  1  0.51309385  0.45011674  0.46887983  1
  C  C286  1  0.50944017  0.46962845  0.47006147  1
  C  C287  1  0.52444782  0.47000606  0.53594699  1
  C  C288  1  0.53090642  0.45082409  0.53400828  1
  C  C289  1  0.54324634  0.49821651  0.46553257  1
  C  C290  1  0.56242920  0.49152928  0.46490213  1
  C  C291  1  0.57422319  0.49788708  0.49579338  1
  C  C292  1  0.56529356  0.50974344  0.52828169  1
  C  C293  1  0.54581925  0.51409445  0.52919469  1
  C  C294  1  0.48995628  0.54521860  0.53410281  1
  C  C295  1  0.48460160  0.56455679  0.53175864  1
  C  C296  1  0.49216703  0.57482949  0.49965283  1
  C  C297  1  0.50340547  0.56420426  0.46859726  1
  C  C298  1  0.50676172  0.54473398  0.47095597  1
  C  C299  1  0.08095371  0.57596385  0.22676538  1
  C  C300  1  0.09463127  0.56364623  0.24681206  1
  C  C301  1  0.10455140  0.56687234  0.28632415  1
  C  C302  1  0.11120207  0.55133253  0.31315853  1
  C  C303  1  0.12141472  0.55309492  0.35045749  1
  C  C304  1  0.12444357  0.57084210  0.36328282  1
  C  C305  1  0.11749605  0.58665278  0.33822555  1
  C  C306  1  0.10744536  0.58476467  0.30050244  1
  C  C307  1  0.13979243  0.55739686  0.42795026  1
  C  C308  1  0.14973614  0.56391938  0.46618910  1
  C  C309  1  0.16931983  0.56341371  0.46410820  1
  C  C310  1  0.17857528  0.56972923  0.49995050  1
  C  C311  1  0.16824152  0.57851735  0.53517766  1
  C  C312  1  0.14845676  0.58030586  0.53497310  1
  C  C313  1  0.13917596  0.57192484  0.50200080  1
  C  C314  1  0.11856270  0.57102647  0.50283220  1
  C  C315  1  0.18038826  0.55532475  0.42561684  1
  C  C316  1  0.17885004  0.58591206  0.57121429  1
  C  C317  1  0.19953946  0.56821232  0.49969888  1
  C  C318  1  0.22241966  0.58810952  0.48775953  1
  C  C319  1  0.23672025  0.57239773  0.48868200  1
  C  C320  1  0.25527428  0.57493676  0.48694009  1
  C  C321  1  0.26013613  0.59311992  0.48730441  1
  C  C322  1  0.24532887  0.60867411  0.48169216  1
  C  C323  1  0.22671800  0.60610297  0.48167751  1
  C  C324  1  0.27966917  0.59404342  0.49239409  1
  C  C325  1  0.29132300  0.57891728  0.51135980  1
  C  C326  1  0.13768583  0.59065259  0.57159713  1
  C  C327  1  0.12793483  0.58264209  0.64247510  1
  C  C328  1  0.11787931  0.60074761  0.64923576  1
  C  C329  1  0.10472029  0.60379996  0.68200927  1
  C  C330  1  0.10191708  0.58916211  0.71018847  1
  C  C331  1  0.11358404  0.57146814  0.70499775  1
  C  C332  1  0.12630451  0.56818498  0.67127365  1
  C  C333  1  0.08865045  0.59227970  0.74536066  1
  C  C334  1  0.08378584  0.57823582  0.76965731  1
  C  C335  1  0.58387086  0.08017946  0.23113800  1
  C  C336  1  0.59946206  0.08289881  0.25348872  1
  C  C337  1  0.59948048  0.09441288  0.29177731  1
  C  C338  1  0.61590692  0.09369736  0.31734919  1
  C  C339  1  0.61603833  0.10435047  0.35456926  1
  C  C340  1  0.59951665  0.11597518  0.36774797  1
  C  C341  1  0.58308421  0.11701234  0.34313473  1
  C  C342  1  0.58295412  0.10611547  0.30627122  1
  C  C343  1  0.61403622  0.12582424  0.43322022  1
  C  C344  1  0.60746079  0.13846968  0.47066542  1
  C  C345  1  0.60781037  0.15787953  0.46678001  1
  C  C346  1  0.60141210  0.16984557  0.50146135  1
  C  C347  1  0.59282906  0.16300279  0.53764240  1
  C  C348  1  0.59121515  0.14383392  0.53935833  1
  C  C349  1  0.59925632  0.13124503  0.50698409  1
  C  C350  1  0.59929939  0.11048374  0.50880291  1
  C  C351  1  0.61572127  0.16549369  0.42718653  1
  C  C352  1  0.58536357  0.17679970  0.57221736  1
  C  C353  1  0.60228272  0.19042131  0.49947636  1
  C  C354  1  0.58061240  0.21947829  0.49051172  1
  C  C355  1  0.59525545  0.22963760  0.49616839  1
  C  C356  1  0.59126446  0.24908122  0.49786683  1
  C  C357  1  0.57263101  0.25892475  0.49253812  1
  C  C358  1  0.55827897  0.24819685  0.48430189  1
  C  C359  1  0.56215973  0.22877239  0.48388367  1
  C  C360  1  0.56804904  0.27893495  0.49555136  1
  C  C361  1  0.58029485  0.29111188  0.50588158  1
  C  C362  1  0.58110773  0.13726994  0.57714188  1
  C  C363  1  0.58858043  0.12472920  0.64764231  1
  C  C364  1  0.56971893  0.12364060  0.65493385  1
  C  C365  1  0.56526142  0.11105759  0.68526992  1
  C  C366  1  0.57923514  0.10055488  0.71181262  1
  C  C367  1  0.59785921  0.10402214  0.70771518  1
  C  C368  1  0.60251556  0.11586716  0.67565161  1
  C  C369  1  0.57398031  0.08774711  0.74377021  1
  C  C370  1  0.58402503  0.08204587  0.78001018  1
  C  C371  1  0.93545266  0.43628328  0.77936357  1
  C  C372  1  0.93376172  0.42170556  0.75281328  1
  C  C373  1  0.92143074  0.42202069  0.71542034  1
  C  C374  1  0.92184618  0.40560353  0.69029390  1
  C  C375  1  0.91070745  0.40535494  0.65374646  1
  C  C376  1  0.89881267  0.42177988  0.64079812  1
  C  C377  1  0.89757870  0.43805915  0.66569442  1
  C  C378  1  0.90873811  0.43823286  0.70234119  1
  C  C379  1  0.88910576  0.40697525  0.57596346  1
  C  C380  1  0.87642629  0.41313010  0.53807280  1
  C  C381  1  0.85709981  0.41232486  0.54163559  1
  C  C382  1  0.84512608  0.41837906  0.50648773  1
  C  C383  1  0.85174001  0.42720832  0.47034156  1
  C  C384  1  0.87083391  0.42917675  0.46878213  1
  C  C385  1  0.88350215  0.42132418  0.50151474  1
  C  C386  1  0.90425301  0.42142118  0.49975773  1
  C  C387  1  0.84954271  0.40429678  0.58117991  1
  C  C388  1  0.83776448  0.43455351  0.43569751  1
  C  C389  1  0.82462071  0.41717560  0.50833310  1
  C  C390  1  0.79545131  0.43871007  0.51655157  1
  C  C391  1  0.78528990  0.42402097  0.51178862  1
  C  C392  1  0.76581785  0.42795564  0.51076287  1
  C  C393  1  0.75603360  0.44662735  0.51530731  1
  C  C394  1  0.76679241  0.46109480  0.52147687  1
  C  C395  1  0.78621575  0.45720726  0.52201195  1
  C  C396  1  0.73599389  0.45136280  0.51405409  1
  C  C397  1  0.72337335  0.43916139  0.50792485  1
  C  C398  1  0.87735175  0.43941554  0.43102439  1
  C  C399  1  0.89020768  0.43176525  0.36051038  1
  C  C400  1  0.89119205  0.45055585  0.35190278  1
  C  C401  1  0.90286329  0.45486408  0.31940318  1
  C  C402  1  0.91286739  0.44075013  0.29272149  1
  C  C403  1  0.90977774  0.42213560  0.29902992  1
  C  C404  1  0.89868597  0.41767311  0.33270578  1
  C  C405  1  0.92478523  0.44555409  0.25844787  1
  C  C406  1  0.93306548  0.43346012  0.22781238  1
  C  C407  1  0.43773167  0.93062541  0.77052805  1
  C  C408  1  0.45183086  0.92601151  0.74158109  1
  C  C409  1  0.45106333  0.91366112  0.70509323  1
  C  C410  1  0.46751429  0.90612485  0.68216441  1
  C  C411  1  0.46692721  0.89435073  0.64706247  1
  C  C412  1  0.44963026  0.89024630  0.63315748  1
  C  C413  1  0.43332353  0.89651746  0.65673384  1
  C  C414  1  0.43406486  0.90789332  0.69254386  1
  C  C415  1  0.46364287  0.87485736  0.56891031  1
  C  C416  1  0.45675557  0.86523760  0.53060080  1
  C  C417  1  0.45669191  0.84577062  0.53318614  1
  C  C418  1  0.45015631  0.83669301  0.49741374  1
  C  C419  1  0.44147657  0.84713940  0.46193304  1
  C  C420  1  0.44009971  0.86687059  0.46172762  1
  C  C421  1  0.44863256  0.87594900  0.49484127  1
  C  C422  1  0.44944353  0.89656264  0.49437758  1
  C  C423  1  0.46420664  0.83461916  0.57232295  1
  C  C424  1  0.43369598  0.83661249  0.42635023  1
  C  C425  1  0.45124095  0.81580335  0.49801621  1
  C  C426  1  0.43073328  0.79351473  0.50991726  1
  C  C427  1  0.44618650  0.77893719  0.50877704  1
  C  C428  1  0.44325894  0.76053529  0.51098430  1
  C  C429  1  0.42489007  0.75609648  0.51243396  1
  C  C430  1  0.40958988  0.77121549  0.51691285  1
  C  C431  1  0.41256917  0.78966439  0.51604672  1
  C  C432  1  0.42345673  0.73662813  0.51089673  1
  C  C433  1  0.43844767  0.72394731  0.49482029  1
  C  C434  1  0.43009506  0.87785283  0.42458922  1
  C  C435  1  0.43886917  0.88801584  0.35422401  1
  C  C436  1  0.42094617  0.89832443  0.34631288  1
  C  C437  1  0.41825256  0.91108943  0.31244309  1
  C  C438  1  0.43299341  0.91341015  0.28412663  1
  C  C439  1  0.45051778  0.90150904  0.29072873  1
  C  C440  1  0.45344604  0.88916669  0.32552251  1
  C  C441  1  0.42966106  0.92705193  0.24913708  1
  C  C442  1  0.44262783  0.93125875  0.22081097  1
  C  C443  1  0.36177630  0.56388771  0.53199025  1
  C  C444  1  0.37564845  0.54612612  0.53875232  1
  C  C445  1  0.38459015  0.53888351  0.50216092  1
  C  C446  1  0.37099719  0.57595430  0.50175945  1
  C  C447  1  0.34599814  0.55865258  0.50357104  1
  C  C448  1  0.37607637  0.56760992  0.46375152  1
  C  C449  1  0.35331477  0.54715389  0.47057965  1
  C  C450  1  0.37372198  0.54721546  0.46197961  1
  C  C451  1  0.40324338  0.52996011  0.50053637  1
  C  C452  1  0.42011495  0.52357403  0.49907708  1
  C  C453  1  0.32734393  0.56747728  0.50619339  1
  C  C454  1  0.31062822  0.57463390  0.50775337  1
  C  C455  1  0.56695852  0.37266975  0.46739489  1
  C  C456  1  0.54621967  0.37158055  0.46993056  1
  C  C457  1  0.53993697  0.38407123  0.50887599  1
  C  C458  1  0.57636060  0.36833589  0.50473618  1
  C  C459  1  0.55758514  0.34501890  0.51560133  1
  C  C460  1  0.56469325  0.36105178  0.53926364  1
  C  C461  1  0.54518891  0.35190856  0.48342398  1
  C  C462  1  0.54778044  0.37590559  0.54603512  1
  C  C463  1  0.53276766  0.40309406  0.50466621  1
  C  C464  1  0.52818089  0.42019800  0.50195556  1
  C  C465  1  0.56653646  0.32647934  0.51797662  1
  C  C466  1  0.57333554  0.30978187  0.51370479  1
  C  C467  1  0.65917910  0.46466441  0.46301626  1
  C  C468  1  0.63883223  0.46310585  0.46611717  1
  C  C469  1  0.62995088  0.47881427  0.49667970  1
  C  C470  1  0.64113595  0.47969040  0.53210022  1
  C  C471  1  0.66892468  0.46115219  0.50100282  1
  C  C472  1  0.65550700  0.46245168  0.53954635  1
  C  C473  1  0.63832165  0.44542674  0.49195760  1
  C  C474  1  0.64579486  0.44578890  0.53182023  1
  C  C475  1  0.61101287  0.48668931  0.49463787  1
  C  C476  1  0.59398493  0.49225259  0.49454497  1
  C  C477  1  0.68767464  0.45310300  0.50416648  1
  C  C478  1  0.70443502  0.44626837  0.50649313  1
  C  C479  1  0.46952210  0.66265172  0.47379911  1
  C  C480  1  0.47275045  0.64014676  0.54113570  1
  C  C481  1  0.47754296  0.63105673  0.50302068  1
  C  C482  1  0.46799510  0.64261010  0.46507030  1
  C  C483  1  0.45980549  0.67021441  0.50921483  1
  C  C484  1  0.44757307  0.64098891  0.47213695  1
  C  C485  1  0.45527017  0.65471786  0.53884303  1
  C  C486  1  0.44130268  0.64618730  0.51193398  1
  C  C487  1  0.48421372  0.61189144  0.49974773  1
  C  C488  1  0.48839604  0.59471564  0.49836946  1
  C  C489  1  0.45057548  0.68876559  0.51089545  1
  C  C490  1  0.44317263  0.70530499  0.50671542  1
  C  C491  1  0.03231645  0.53972465  0.90316792  1
  C  C492  1  0.07109552  0.54761993  0.82497589  1
  C  C493  1  0.06320697  0.53509601  0.85738830  1
  C  C494  1  0.04147735  0.53763206  0.85875262  1
  C  C495  1  0.08143070  0.57967335  0.81757922  1
  C  C496  1  0.06740318  0.56852500  0.83726825  1
  C  C497  1  0.53001522  0.03127965  0.90562898  1
  C  C498  1  0.57137141  0.05859591  0.88514438  1
  C  C499  1  0.55500324  0.05294537  0.91053712  1
  C  C500  1  0.55077034  0.03319133  0.90072915  1
  C  C501  1  0.57495527  0.08222127  0.82367024  1
  C  C502  1  0.56670200  0.06469952  0.83798057  1
  C  C503  1  0.97887086  0.49019154  0.10800937  1
  C  C504  1  0.96518057  0.44318099  0.14519843  1
  C  C505  1  0.97259315  0.45640203  0.11357672  1
  C  C506  1  0.98049852  0.47259319  0.13521360  1
  C  C507  1  0.93295326  0.43926916  0.18119506  1
  C  C508  1  0.94660825  0.45254754  0.16632282  1
  C  C509  1  0.48717604  0.98497952  0.10638417  1
  C  C510  1  0.46808652  0.94105817  0.13834483  1
  C  C511  1  0.47782604  0.95100852  0.10312026  1
  C  C512  1  0.49166804  0.96408001  0.11788300  1
  C  C513  1  0.43683800  0.94210120  0.18021296  1
  C  C514  1  0.45099923  0.95319693  0.15998102  1
  C  C515  1  0.52722234  0.03924687  0.09856793  1
  C  C516  1  0.57451622  0.05141613  0.13763399  1
  C  C517  1  0.56270195  0.03837505  0.11524120  1
  C  C518  1  0.54491018  0.04749522  0.08946023  1
  C  C519  1  0.58124435  0.06096598  0.21726724  1
  C  C520  1  0.56661758  0.05905130  0.18161110  1
  C  C521  1  0.02944341  0.54350570  0.08906319  1
  C  C522  1  0.07194659  0.55364216  0.13939761  1
  C  C523  1  0.06389661  0.53652898  0.12208270  1
  C  C524  1  0.05077788  0.53997912  0.08188123  1
  C  C525  1  0.06250680  0.57052163  0.21338619  1
  C  C526  1  0.05850986  0.56899655  0.16459074  1
  C  C527  1  0.98247794  0.49115383  0.89525674  1
  C  C528  1  0.94618008  0.45889446  0.87713664  1
  C  C529  1  0.95878474  0.46780837  0.90826120  1
  C  C530  1  0.96202915  0.48795011  0.89741388  1
  C  C531  1  0.94973836  0.43379803  0.81507969  1
  C  C532  1  0.95595299  0.45145444  0.83480029  1
  C  C533  1  0.49062221  0.97705500  0.90079366  1
  C  C534  1  0.44460279  0.95906878  0.87080599  1
  C  C535  1  0.45922251  0.96455769  0.90209683  1
  C  C536  1  0.46998386  0.97999034  0.88657814  1
  C  C537  1  0.44144441  0.93165528  0.81813131  1
  C  C538  1  0.45346118  0.94624065  0.83412521  1
  N  N539  1  0.47911835  0.50645762  0.50009014  1
  N  N540  1  0.51391364  0.47914754  0.50433997  1
  N  N541  1  0.53500499  0.50844946  0.49829600  1
  N  N542  1  0.50088337  0.53539810  0.50417623  1
  Cl  Cl543  1  0.51007725  0.50361898  0.58646799  1
  Cl  Cl544  1  0.50520966  0.50323681  0.41384465  1
  O  O545  1  0.02263772  0.51830784  0.04589068  1
  O  O546  1  0.01033011  0.52220862  0.11429242  1
  O  O547  1  0.98834078  0.50239551  0.04301678  1
  O  O548  1  0.00693893  0.47658139  0.07278170  1
  O  O549  1  0.98097831  0.51249785  0.95467433  1
  O  O550  1  0.00392972  0.48772158  0.95660407  1
  O  O551  1  0.01802051  0.52408977  0.95727406  1
  O  O552  1  0.01889383  0.51279633  0.88782727  1
  O  O553  1  0.51179139  0.03054764  0.97074329  1
  O  O554  1  0.53427952  0.00626545  0.95783434  1
  O  O555  1  0.49751614  0.99462345  0.96040996  1
  O  O556  1  0.49301216  0.00917113  0.89404403  1
  O  O557  1  0.50959848  0.98005021  0.04814549  1
  O  O558  1  0.49136581  0.00797141  0.05233119  1
  O  O559  1  0.53122594  0.01342223  0.05044983  1
  O  O560  1  0.52916207  0.00770916  0.12286106  1
  O  O561  1  0.13415703  0.57357732  0.39970031  1
  O  O562  1  0.14014788  0.57838061  0.60920543  1
  O  O563  1  0.20394265  0.58683742  0.49148834  1
  O  O564  1  0.59821934  0.12714741  0.40325387  1
  O  O565  1  0.59387259  0.13475202  0.61402746  1
  O  O566  1  0.58327959  0.20041123  0.49093942  1
  O  O567  1  0.88762493  0.42298426  0.60513526  1
  O  O568  1  0.88052139  0.42651917  0.39468466  1
  O  O569  1  0.81452381  0.43610736  0.51641022  1
  O  O570  1  0.44768630  0.87961629  0.59784635  1
  O  O571  1  0.44288619  0.87596062  0.38808264  1
  O  O572  1  0.43243230  0.81186803  0.50614619  1
