# generated using pymatgen
data_H114C141(NO)11
_symmetry_space_group_name_H-M   'P 1'
_cell_length_a   61.36989456
_cell_length_b   44.56048954
_cell_length_c   85.15396428
_cell_angle_alpha   91.59740499
_cell_angle_beta   90.50079794
_cell_angle_gamma   70.61208562
_symmetry_Int_Tables_number   1
_chemical_formula_structural   H114C141(NO)11
_chemical_formula_sum   'H228 C282 N22 O22'
_cell_volume   219577.48283817
_cell_formula_units_Z   2
loop_
 _symmetry_equiv_pos_site_id
 _symmetry_equiv_pos_as_xyz
  1  'x, y, z'
loop_
 _atom_site_type_symbol
 _atom_site_label
 _atom_site_symmetry_multiplicity
 _atom_site_fract_x
 _atom_site_fract_y
 _atom_site_fract_z
 _atom_site_occupancy
  H  H0  1  0.01325233  0.10917811  0.62025415  1
  H  H1  1  0.02205631  0.09323221  0.66258980  1
  H  H2  1  0.02233355  0.13510750  0.68233154  1
  H  H3  1  0.00422658  0.20506676  0.64634816  1
  H  H4  1  0.00257782  0.16381127  0.62677079  1
  H  H5  1  0.00972230  0.03462991  0.67186319  1
  H  H6  1  0.02571572  0.96717400  0.64316153  1
  H  H7  1  0.99821960  0.00172502  0.68915688  1
  H  H8  1  0.02536245  0.91361420  0.64936558  1
  H  H9  1  0.00058374  0.94706487  0.69590880  1
  H  H10  1  0.01626747  0.98364932  0.61170616  1
  H  H11  1  0.03332878  0.04994056  0.59731375  1
  H  H12  1  0.03195241  0.06343359  0.56943092  1
  H  H13  1  0.00866427  0.98458177  0.55732278  1
  H  H14  1  0.01049689  0.97046051  0.58536660  1
  H  H15  1  0.01393912  0.95838667  0.38805314  1
  H  H16  1  0.02341714  0.96553625  0.34575341  1
  H  H17  1  0.02353693  0.92336284  0.32606565  1
  H  H18  1  0.00563839  0.87008467  0.36221691  1
  H  H19  1  0.00406188  0.91292419  0.38171440  1
  H  H20  1  0.01132520  0.03606342  0.33656761  1
  H  H21  1  0.02698649  0.08904741  0.36533433  1
  H  H22  1  0.99989473  0.07952007  0.31927112  1
  H  H23  1  0.02715613  0.14264226  0.35901900  1
  H  H24  1  0.00231286  0.13192751  0.31251381  1
  H  H25  1  0.01745102  0.08034058  0.39716771  1
  H  H26  1  0.03227947  0.99802833  0.41102795  1
  H  H27  1  0.02836523  0.98553464  0.43859021  1
  H  H28  1  0.01298555  0.08455463  0.45169698  1
  H  H29  1  0.01315465  0.09785323  0.42367070  1
  H  H30  1  0.05090095  0.57591920  0.77422772  1
  H  H31  1  0.04046940  0.54995798  0.78519089  1
  H  H32  1  0.00404627  0.55091398  0.75041883  1
  H  H33  1  0.00762899  0.58461999  0.76044604  1
  H  H34  1  0.06936071  0.53704759  0.74552339  1
  H  H35  1  0.04366890  0.54362726  0.73418591  1
  H  H36  1  0.04176608  0.49936344  0.77168220  1
  H  H37  1  0.06407539  0.49572822  0.75749057  1
  H  H38  1  0.04159097  0.46128666  0.23213968  1
  H  H39  1  0.04026106  0.49573185  0.22158833  1
  H  H40  1  0.00619401  0.52646368  0.25878540  1
  H  H41  1  0.00700324  0.49143661  0.24781315  1
  H  H42  1  0.07059970  0.47784661  0.26052538  1
  H  H43  1  0.04595885  0.49545437  0.27276138  1
  H  H44  1  0.04004195  0.54440327  0.23566097  1
  H  H45  1  0.06533987  0.52645183  0.24689796  1
  H  H46  1  0.76793472  0.70144239  0.10366569  1
  H  H47  1  0.78510712  0.62803252  0.10443863  1
  H  H48  1  0.77901499  0.60218137  0.08025731  1
  H  H49  1  0.75629750  0.60101608  0.05652349  1
  H  H50  1  0.71571172  0.69961152  0.06505220  1
  H  H51  1  0.73746342  0.70014192  0.08955908  1
  H  H52  1  0.72751405  0.60479276  0.03994648  1
  H  H53  1  0.74739968  0.62026606  0.03109912  1
  H  H54  1  0.74449420  0.66868801  0.99768970  1
  H  H55  1  0.75595739  0.63113708  0.00624153  1
  H  H56  1  0.74555014  0.66577567  0.01840893  1
  H  H57  1  0.69422788  0.61586903  0.04511009  1
  H  H58  1  0.68932138  0.58731355  0.03188502  1
  H  H59  1  0.66672663  0.62293207  0.03682611  1
  H  H60  1  0.66979004  0.67699265  0.97283406  1
  H  H61  1  0.64751078  0.68124386  0.98685238  1
  H  H62  1  0.66031074  0.64471546  0.97657114  1
  H  H63  1  0.65102193  0.62126777  0.99544547  1
  H  H64  1  0.65527628  0.61072519  0.01541679  1
  H  H65  1  0.62271471  0.60677524  0.00907038  1
  H  H66  1  0.58216859  0.60974444  0.00921554  1
  H  H67  1  0.56099531  0.71150057  0.01745598  1
  H  H68  1  0.60228057  0.70841852  0.01738097  1
  H  H69  1  0.53142520  0.68738419  0.01440198  1
  H  H70  1  0.54232563  0.61877271  0.00197685  1
  H  H71  1  0.69032020  0.70276342  0.98015411  1
  H  H72  1  0.71977038  0.69291274  0.98519751  1
  H  H73  1  0.70857565  0.72332269  0.96154434  1
  H  H74  1  0.72885181  0.73760430  0.93973652  1
  H  H75  1  0.75390001  0.63923014  0.92377512  1
  H  H76  1  0.73445435  0.62473974  0.94630721  1
  H  H77  1  0.75011756  0.71878089  0.91224809  1
  H  H78  1  0.79109694  0.66243254  0.92227421  1
  H  H79  1  0.32538721  0.37331214  0.89370187  1
  H  H80  1  0.30191927  0.33014859  0.90843348  1
  H  H81  1  0.33754963  0.29351708  0.92606714  1
  H  H82  1  0.36252760  0.29415398  0.94863156  1
  H  H83  1  0.34651876  0.39557215  0.94463879  1
  H  H84  1  0.32149492  0.39506912  0.92185956  1
  H  H85  1  0.39044503  0.30327478  0.96698741  1
  H  H86  1  0.36243399  0.31464962  0.97528016  1
  H  H87  1  0.33839763  0.35384372  0.01096883  1
  H  H88  1  0.35060786  0.31739327  0.00057183  1
  H  H89  1  0.33787963  0.35285193  0.99019454  1
  H  H90  1  0.41001230  0.33297241  0.95996554  1
  H  H91  1  0.43286923  0.30763396  0.97116657  1
  H  H92  1  0.43130522  0.34738828  0.96783259  1
  H  H93  1  0.40030406  0.38828939  0.03512029  1
  H  H94  1  0.41617811  0.40130010  0.02105246  1
  H  H95  1  0.42806011  0.36354775  0.02945757  1
  H  H96  1  0.44885511  0.35076692  0.00837142  1
  H  H97  1  0.44928005  0.34482285  0.98763881  1
  H  H98  1  0.48033776  0.35148558  0.99618771  1
  H  H99  1  0.51422700  0.36838687  0.00001153  1
  H  H100  1  0.47146355  0.46624317  0.99435557  1
  H  H101  1  0.43651672  0.44953273  0.99317593  1
  H  H102  1  0.51155378  0.45546303  0.99851771  1
  H  H103  1  0.55002159  0.39365128  -0.00262147  1
  H  H104  1  0.36782437  0.39846453  0.03132157  1
  H  H105  1  0.34621197  0.38349763  0.02441082  1
  H  H106  1  0.34269244  0.41072819  0.04895575  1
  H  H107  1  0.31608059  0.41904196  0.07131040  1
  H  H108  1  0.34559086  0.32005883  0.08278260  1
  H  H109  1  0.37031516  0.31077698  0.05907442  1
  H  H110  1  0.30769360  0.40530487  0.09506973  1
  H  H111  1  0.32098247  0.33884480  0.10839033  1
  H  H112  1  0.95597161  0.64644506  0.82280910  1
  H  H113  1  0.99759435  0.62293652  0.81657469  1
  H  H114  1  0.01180387  0.57144057  0.80125426  1
  H  H115  1  0.94313383  0.57046366  0.79603864  1
  H  H116  1  0.91783307  0.65095206  0.80423470  1
  H  H117  1  0.91123185  0.61485996  0.80373344  1
  H  H118  1  0.80952668  0.60652322  0.86193672  1
  H  H119  1  0.76729666  0.63106776  0.86584704  1
  H  H120  1  0.75200483  0.67113026  0.88730599  1
  H  H121  1  0.82113830  0.66569309  0.89958286  1
  H  H122  1  0.84887335  0.59398136  0.87669933  1
  H  H123  1  0.88530515  0.62956541  0.86342375  1
  H  H124  1  0.86841641  0.61159318  0.83185132  1
  H  H125  1  0.85546503  0.65103614  0.83919836  1
  H  H126  1  0.88086091  0.59353384  0.85742225  1
  H  H127  1  0.85341151  0.62624703  0.88756795  1
  H  H128  1  0.88615321  0.67668377  0.81462404  1
  H  H129  1  0.89631826  0.68626270  0.83476300  1
  H  H130  1  0.96995791  0.54056730  0.16820728  1
  H  H131  1  0.00934759  0.52970576  0.17891399  1
  H  H132  1  0.01487391  0.53723564  0.20756303  1
  H  H133  1  0.94204676  0.56221685  0.21495666  1
  H  H134  1  0.93559512  0.52089678  0.18037699  1
  H  H135  1  0.91937958  0.54738668  0.19545529  1
  H  H136  1  0.79784384  0.68184150  0.16996538  1
  H  H137  1  0.75788619  0.68535162  0.16268649  1
  H  H138  1  0.74729017  0.68221136  0.13473933  1
  H  H139  1  0.81648632  0.67463455  0.12111876  1
  H  H140  1  0.83260684  0.69421200  0.16093065  1
  H  H141  1  0.88305935  0.63699853  0.15474720  1
  H  H142  1  0.86711617  0.60895672  0.18275288  1
  H  H143  1  0.86098720  0.59548153  0.16406188  1
  H  H144  1  0.86869356  0.65617071  0.17217858  1
  H  H145  1  0.84190273  0.68578029  0.14104547  1
  H  H146  1  0.90568218  0.52855266  0.16662157  1
  H  H147  1  0.91333591  0.54963861  0.14942961  1
  H  H148  1  0.15303866  0.41069911  0.78778887  1
  H  H149  1  0.11817050  0.41580503  0.77165364  1
  H  H150  1  0.08379178  0.46383911  0.77442771  1
  H  H151  1  0.12169457  0.50664714  0.80558625  1
  H  H152  1  0.17455413  0.45552646  0.78932675  1
  H  H153  1  0.16329178  0.48519284  0.80437839  1
  H  H154  1  0.23155490  0.46243493  0.88526928  1
  H  H155  1  0.26750142  0.47328856  0.89296045  1
  H  H156  1  0.30472302  0.42848818  0.89291518  1
  H  H157  1  0.26797519  0.36176483  0.88685318  1
  H  H158  1  0.21148422  0.42090173  0.88431923  1
  H  H159  1  0.19883458  0.40160649  0.84918577  1
  H  H160  1  0.19841145  0.46791660  0.84054907  1
  H  H161  1  0.22332178  0.43511697  0.83582103  1
  H  H162  1  0.18713965  0.43842746  0.85973917  1
  H  H163  1  0.22795154  0.38167330  0.87766506  1
  H  H164  1  0.20752822  0.43807745  0.79868743  1
  H  H165  1  0.20786310  0.39720871  0.80491446  1
  H  H166  1  0.16792693  0.40157560  0.22502503  1
  H  H167  1  0.14661393  0.42592799  0.24926766  1
  H  H168  1  0.10911900  0.46987682  0.24743961  1
  H  H169  1  0.11629217  0.46900736  0.19739595  1
  H  H170  1  0.15115883  0.38678822  0.19802175  1
  H  H171  1  0.13950799  0.41883541  0.18494541  1
  H  H172  1  0.22411177  0.43550820  0.11296155  1
  H  H173  1  0.23579241  0.40927209  0.08682056  1
  H  H174  1  0.27380310  0.36709916  0.08359678  1
  H  H175  1  0.28636747  0.37224495  0.13322733  1
  H  H176  1  0.23822434  0.44726845  0.13920407  1
  H  H177  1  0.22531793  0.41857840  0.17187137  1
  H  H178  1  0.18130455  0.42321010  0.15361866  1
  H  H179  1  0.20315107  0.38551699  0.15458182  1
  H  H180  1  0.20815950  0.44954524  0.15988244  1
  H  H181  1  0.26110228  0.41759726  0.14861300  1
  H  H182  1  0.17247392  0.36272133  0.17907507  1
  H  H183  1  0.20081476  0.35791033  0.18970005  1
  H  H184  1  0.51638326  0.49984362  0.99026235  1
  H  H185  1  0.54432709  0.46677821  0.99061621  1
  H  H186  1  0.56149579  0.50026853  0.00709153  1
  H  H187  1  0.51313230  0.55157529  0.00422154  1
  H  H188  1  0.53155560  0.58440306  0.02030867  1
  H  H189  1  0.56030018  0.55814918  0.01333886  1
  H  H190  1  0.98461187  0.26647366  0.69664345  1
  H  H191  1  0.98575702  0.31715347  0.70735605  1
  H  H192  1  0.05839802  0.28897675  0.69497920  1
  H  H193  1  0.05632313  0.23874118  0.68419951  1
  H  H194  1  0.06030603  0.32789194  0.70580529  1
  H  H195  1  0.06093627  0.37892025  0.71656225  1
  H  H196  1  0.98900915  0.40615918  0.72827628  1
  H  H197  1  0.98785579  0.35470700  0.71846191  1
  H  H198  1  0.98432326  0.84535621  0.68904156  1
  H  H199  1  0.98852319  0.79433248  0.70057392  1
  H  H200  1  0.06310215  0.77129364  0.69970558  1
  H  H201  1  0.05797244  0.82257905  0.68815736  1
  H  H202  1  0.06683388  0.73082003  0.70950005  1
  H  H203  1  0.07102437  0.68029664  0.72165465  1
  H  H204  1  0.99734651  0.70290162  0.72217267  1
  H  H205  1  0.99225417  0.75388165  0.71033978  1
  H  H206  1  0.05866614  0.79295456  0.31795152  1
  H  H207  1  0.06092774  0.74069472  0.30724470  1
  H  H208  1  0.98606408  0.77005109  0.30768910  1
  H  H209  1  0.98463905  0.82205799  0.31815693  1
  H  H210  1  0.98728716  0.73108545  0.29608454  1
  H  H211  1  0.98914063  0.67814699  0.28648260  1
  H  H212  1  0.06311733  0.64851027  0.28566154  1
  H  H213  1  0.06216583  0.70041013  0.29623636  1
  H  H214  1  0.00284623  0.25550835  0.33820456  1
  H  H215  1  0.00732740  0.30267422  0.32679931  1
  H  H216  1  0.04854391  0.24315393  0.28926053  1
  H  H217  1  0.04350087  0.19681650  0.30105076  1
  H  H218  1  0.05018693  0.28086966  0.27894115  1
  H  H219  1  0.05512602  0.32772098  0.26751553  1
  H  H220  1  0.01426156  0.38704146  0.30445922  1
  H  H221  1  0.00916728  0.34079755  0.31641721  1
  H  H222  1  0.97949136  0.03116761  0.46340399  1
  H  H223  1  0.05055948  0.02617613  0.46842151  1
  H  H224  1  0.04649696  0.04116163  0.54137933  1
  H  H225  1  0.97711828  0.03859757  0.54482527  1
  H  H226  1  0.97618979  0.03429910  0.49213962  1
  H  H227  1  0.97462020  0.03991829  0.51602142  1
  C  C228  1  0.01498926  0.17254942  0.66551654  1
  C  C229  1  0.00841081  0.18039358  0.64976896  1
  C  C230  1  0.00750582  0.15739913  0.63884816  1
  C  C231  1  0.01129875  0.03193474  0.64803426  1
  C  C232  1  0.01153031  0.98845188  0.66560598  1
  C  C233  1  0.01966711  0.96306644  0.65459308  1
  C  C234  1  0.02008392  0.93288383  0.65818492  1
  C  C235  1  0.01391553  0.92617895  0.67331159  1
  C  C236  1  0.00586638  0.95180098  0.68431196  1
  C  C237  1  0.00470471  0.98228209  0.68057052  1
  C  C238  1  0.01408881  0.02598557  0.62181018  1
  C  C239  1  0.01910959  0.01179164  0.59336188  1
  C  C240  1  0.02694426  0.03636795  0.58867822  1
  C  C241  1  0.02650318  0.04364742  0.57290143  1
  C  C242  1  0.01705952  0.02747609  0.56184097  1
  C  C243  1  0.01263344  0.99991018  0.56630508  1
  C  C244  1  0.01415185  0.99166144  0.58191883  1
  C  C245  1  0.01276534  0.07239151  0.63339735  1
  C  C246  1  0.01810835  0.11773632  0.65905262  1
  C  C247  1  0.01274630  0.12557403  0.64329771  1
  C  C248  1  0.01874418  0.14095716  0.67001952  1
  C  C249  1  0.01618936  0.89271946  0.34293301  1
  C  C250  1  0.00974901  0.89094536  0.35872248  1
  C  C251  1  0.00884368  0.91484858  0.36960009  1
  C  C252  1  0.01283425  0.03715680  0.36038755  1
  C  C253  1  0.01310919  0.08057841  0.34284122  1
  C  C254  1  0.02113709  0.09859329  0.35385794  1
  C  C255  1  0.02170970  0.12832977  0.35022547  1
  C  C256  1  0.01549096  0.14081891  0.33512973  1
  C  C257  1  0.00754044  0.12245232  0.32413046  1
  C  C258  1  0.00637230  0.09301001  0.32787122  1
  C  C259  1  0.01510209  0.04036512  0.38666253  1
  C  C260  1  0.01978894  0.04920153  0.41525474  1
  C  C261  1  0.02617863  0.01737216  0.41971797  1
  C  C262  1  0.02459881  0.01026139  0.43536071  1
  C  C263  1  0.01810052  0.03482925  0.44674761  1
  C  C264  1  0.01600959  0.06594730  0.44258197  1
  C  C265  1  0.01632055  0.07329419  0.42691686  1
  C  C266  1  0.01371643  0.99536213  0.37486020  1
  C  C267  1  0.01936738  0.94472604  0.34931643  1
  C  C268  1  0.01391394  0.94196350  0.36506464  1
  C  C269  1  0.01997049  0.92084927  0.33838925  1
  C  C270  1  0.08086736  0.51947043  0.79081878  1
  C  C271  1  0.05033346  0.55156147  0.77474854  1
  C  C272  1  0.01267346  0.55849615  0.76040224  1
  C  C273  1  0.98221063  0.56047631  0.77783398  1
  C  C274  1  0.03178492  0.60260871  0.73576645  1
  C  C275  1  0.05075359  0.55035404  0.74510622  1
  C  C276  1  0.04549358  0.50627656  0.75992394  1
  C  C277  1  0.04220519  0.46018231  0.74937530  1
  C  C278  1  0.03906555  0.54267626  0.75974526  1
  C  C279  1  0.08296517  0.48312532  0.22047586  1
  C  C280  1  0.04745487  0.48206232  0.23207045  1
  C  C281  1  0.01305772  0.51207698  0.24810927  1
  C  C282  1  0.98287032  0.53456545  0.22999010  1
  C  C283  1  0.03329085  0.44831951  0.27229058  1
  C  C284  1  0.05193183  0.48256274  0.26158096  1
  C  C285  1  0.04643098  0.53238225  0.24672234  1
  C  C286  1  0.04083608  0.58227826  0.25775006  1
  C  C287  1  0.03958796  0.50214586  0.24743219  1
  C  C288  1  0.77401540  0.67804661  0.10906848  1
  C  C289  1  0.77420401  0.65153638  0.10074603  1
  C  C290  1  0.76097823  0.65163646  0.08647838  1
  C  C291  1  0.76527376  0.62376601  0.07693610  1
  C  C292  1  0.75265862  0.62322139  0.06334760  1
  C  C293  1  0.73532673  0.65094413  0.05876006  1
  C  C294  1  0.72987544  0.67846605  0.06835729  1
  C  C295  1  0.74238715  0.67877716  0.08203201  1
  C  C296  1  0.72905861  0.62583783  0.03419606  1
  C  C297  1  0.71315589  0.63479499  0.02023888  1
  C  C298  1  0.69199224  0.62876649  0.02054070  1
  C  C299  1  0.67725081  0.63667519  0.00737164  1
  C  C300  1  0.68173232  0.65456332  0.99507548  1
  C  C301  1  0.70218833  0.66252451  0.99550681  1
  C  C302  1  0.71871972  0.65084661  0.00749587  1
  C  C303  1  0.74217825  0.65447927  0.00740907  1
  C  C304  1  0.68531205  0.61308327  0.03424360  1
  C  C305  1  0.66409208  0.66499910  0.98222133  1
  C  C306  1  0.65510052  0.62930014  0.00713843  1
  C  C307  1  0.61484846  0.65788680  0.01233953  1
  C  C308  1  0.60933418  0.62996541  0.01051850  1
  C  C309  1  0.58623432  0.63169376  0.01071558  1
  C  C310  1  0.56851467  0.66107132  0.01280533  1
  C  C311  1  0.57455865  0.68872628  0.01541373  1
  C  C312  1  0.59756773  0.68710927  0.01532172  1
  C  C313  1  0.54391041  0.66354540  0.01246505  1
  C  C314  1  0.53687269  0.63877495  0.01026556  1
  C  C315  1  0.70615000  0.68259190  0.98256054  1
  C  C316  1  0.72206383  0.67256586  0.95608330  1
  C  C317  1  0.71945505  0.70456980  0.95375237  1
  C  C318  1  0.73044516  0.71270696  0.94114294  1
  C  C319  1  0.74458114  0.68914662  0.93067861  1
  C  C320  1  0.74509767  0.65741206  0.93255123  1
  C  C321  1  0.73380998  0.64927638  0.94496487  1
  C  C322  1  0.75754652  0.69578489  0.91779693  1
  C  C323  1  0.77864475  0.67507347  0.91334089  1
  C  C324  1  0.30994324  0.36821141  0.89745567  1
  C  C325  1  0.31230110  0.34582878  0.90860467  1
  C  C326  1  0.32760169  0.34418694  0.92188921  1
  C  C327  1  0.33901686  0.31616882  0.93019440  1
  C  C328  1  0.35303631  0.31653147  0.94310061  1
  C  C329  1  0.35531127  0.34535236  0.94850971  1
  C  C330  1  0.34448516  0.37330693  0.94044841  1
  C  C331  1  0.33082778  0.37273337  0.92744274  1
  C  C332  1  0.37664492  0.32345513  0.97243040  1
  C  C333  1  0.38534587  0.33758194  0.98643351  1
  C  C334  1  0.40687764  0.34245340  0.98513180  1
  C  C335  1  0.41544396  0.35538949  0.99813459  1
  C  C336  1  0.40183292  0.36617440  0.01183533  1
  C  C337  1  0.37954241  0.36352720  0.01242757  1
  C  C338  1  0.37145312  0.34816221  0.00003152  1
  C  C339  1  0.34851477  0.34295539  0.00052644  1
  C  C340  1  0.42087174  0.33227887  0.97033952  1
  C  C341  1  0.41188221  0.38059069  0.02499789  1
  C  C342  1  0.43897622  0.35874416  0.99748346  1
  C  C343  1  0.45608614  0.39974184  0.99558799  1
  C  C344  1  0.47801224  0.37682218  0.99672021  1
  C  C345  1  0.49737183  0.38644196  0.99828050  1
  C  C346  1  0.49519773  0.41876240  0.99777783  1
  C  C347  1  0.47314167  0.44126117  0.99532168  1
  C  C348  1  0.45364337  0.43194574  0.99452548  1
  C  C349  1  0.51528246  0.42985293  0.99943585  1
  C  C350  1  0.53615165  0.41186306  0.00350486  1
  C  C351  1  0.36485738  0.37678324  0.02673576  1
  C  C352  1  0.35730769  0.35967629  0.05208299  1
  C  C353  1  0.34287083  0.39052218  0.05594913  1
  C  C354  1  0.32896114  0.39568643  0.06914954  1
  C  C355  1  0.33035930  0.37113229  0.07971774  1
  C  C356  1  0.34501486  0.34007754  0.07552278  1
  C  C357  1  0.35867920  0.33463734  0.06205100  1
  C  C358  1  0.31589604  0.37950260  0.09363216  1
  C  C359  1  0.30917682  0.36038769  0.10336248  1
  C  C360  1  0.94609263  0.61064069  0.80961088  1
  C  C361  1  0.96202157  0.62471464  0.81558833  1
  C  C362  1  0.98559306  0.61117451  0.81231921  1
  C  C363  1  0.99339423  0.58412781  0.80251816  1
  C  C364  1  0.97713548  0.57430068  0.79411119  1
  C  C365  1  0.95441711  0.58371732  0.79974639  1
  C  C366  1  0.92042069  0.62841232  0.81043919  1
  C  C367  1  0.81850519  0.63424723  0.88058564  1
  C  C368  1  0.80972091  0.65563874  0.89305071  1
  C  C369  1  0.84437594  0.62050839  0.87714966  1
  C  C370  1  0.87342944  0.61981079  0.85681190  1
  C  C371  1  0.87169757  0.63017563  0.83942797  1
  C  C372  1  0.80299759  0.62460968  0.87119749  1
  C  C373  1  0.77910365  0.63843433  0.87343799  1
  C  C374  1  0.78599697  0.66520762  0.89722119  1
  C  C375  1  0.89233276  0.66928449  0.82657094  1
  C  C376  1  0.88942418  0.64009869  0.83203755  1
  C  C377  1  0.77060979  0.65994126  0.88589915  1
  C  C378  1  0.95313959  0.54942753  0.19097422  1
  C  C379  1  0.97230477  0.54240712  0.18084560  1
  C  C380  1  0.99449137  0.53733606  0.18680066  1
  C  C381  1  0.99783373  0.53928584  0.20297069  1
  C  C382  1  0.97920096  0.54337189  0.21316717  1
  C  C383  1  0.95673794  0.55301945  0.20703725  1
  C  C384  1  0.93075312  0.54559256  0.18529929  1
  C  C385  1  0.80950453  0.67977292  0.14595967  1
  C  C386  1  0.80344812  0.67773082  0.13021823  1
  C  C387  1  0.83406320  0.67701209  0.15086776  1
  C  C388  1  0.86886022  0.63810530  0.16289470  1
  C  C389  1  0.87319959  0.60522092  0.17045458  1
  C  C390  1  0.79311620  0.68163407  0.15761137  1
  C  C391  1  0.77068298  0.68300487  0.15352844  1
  C  C392  1  0.78102364  0.67857256  0.12579792  1
  C  C393  1  0.90720809  0.55029386  0.16157601  1
  C  C394  1  0.89566035  0.58028837  0.16999596  1
  C  C395  1  0.76477499  0.68136402  0.13779271  1
  C  C396  1  0.14089030  0.45969992  0.79629843  1
  C  C397  1  0.13876063  0.43313634  0.78795035  1
  C  C398  1  0.11877576  0.43541902  0.77941032  1
  C  C399  1  0.09975126  0.46327381  0.78033511  1
  C  C400  1  0.10093409  0.48896466  0.78975119  1
  C  C401  1  0.12113824  0.48670121  0.79809472  1
  C  C402  1  0.16465359  0.46089055  0.80050595  1
  C  C403  1  0.24794986  0.41138428  0.88414489  1
  C  C404  1  0.26795246  0.38621259  0.88788997  1
  C  C405  1  0.22643740  0.40704356  0.87671769  1
  C  C406  1  0.20217986  0.42382205  0.85261960  1
  C  C407  1  0.20431634  0.44212273  0.83767929  1
  C  C408  1  0.24759341  0.44271350  0.88671629  1
  C  C409  1  0.26786785  0.44893428  0.89069671  1
  C  C410  1  0.28851147  0.39213912  0.89219220  1
  C  C411  1  0.20262453  0.42307330  0.80710891  1
  C  C412  1  0.19448995  0.43734334  0.82252415  1
  C  C413  1  0.28847975  0.42376184  0.89159179  1
  C  C414  1  0.14279596  0.43175898  0.20919615  1
  C  C415  1  0.15178760  0.42131424  0.22409932  1
  C  C416  1  0.13993847  0.43522985  0.23783606  1
  C  C417  1  0.11834544  0.45867541  0.23679863  1
  C  C418  1  0.10855306  0.46764475  0.22201629  1
  C  C419  1  0.12232058  0.45784308  0.20855604  1
  C  C420  1  0.15159887  0.41056685  0.19476931  1
  C  C421  1  0.25454499  0.40575565  0.12490958  1
  C  C422  1  0.27594344  0.38184071  0.12293565  1
  C  C423  1  0.24577292  0.42102481  0.14094919  1
  C  C424  1  0.21543565  0.42329293  0.16074810  1
  C  C425  1  0.19562791  0.40877687  0.16103087  1
  C  C426  1  0.24047711  0.41612948  0.11172509  1
  C  C427  1  0.24702031  0.40140917  0.09695332  1
  C  C428  1  0.28475589  0.37171881  0.10761987  1
  C  C429  1  0.18594932  0.37263578  0.18292985  1
  C  C430  1  0.18589437  0.40185269  0.17554102  1
  C  C431  1  0.26884127  0.37902952  0.09502487  1
  C  C432  1  0.53434862  0.49119898  0.99403852  1
  C  C433  1  0.54374187  0.50987800  0.00267042  1
  C  C434  1  0.53164798  0.54296753  0.00696105  1
  C  C435  1  0.54173962  0.56262216  0.01408257  1
  C  C436  1  0.01732339  0.19644167  0.67598016  1
  C  C437  1  0.01897161  0.21997725  0.68300153  1
  C  C438  1  0.02042555  0.24851065  0.68985087  1
  C  C439  1  0.00081228  0.27155987  0.69658791  1
  C  C440  1  0.00172430  0.30008446  0.70282276  1
  C  C441  1  0.02253687  0.30724700  0.70298151  1
  C  C442  1  0.04210318  0.28442841  0.69589176  1
  C  C443  1  0.04105557  0.25597439  0.68960995  1
  C  C444  1  0.02349708  0.33747075  0.70996480  1
  C  C445  1  0.04420641  0.34497346  0.71015148  1
  C  C446  1  0.04477722  0.37369502  0.71630651  1
  C  C447  1  0.02477039  0.39668714  0.72271043  1
  C  C448  1  0.00436786  0.38895817  0.72296495  1
  C  C449  1  0.00379714  0.35998068  0.71704448  1
  C  C450  1  0.02602292  0.42497461  0.73016558  1
  C  C451  1  0.03196552  0.44395975  0.73839513  1
  C  C452  1  0.01589539  0.89500329  0.67750013  1
  C  C453  1  0.01804100  0.86827438  0.68195330  1
  C  C454  1  0.02076867  0.83808215  0.68798498  1
  C  C455  1  0.00152528  0.82883090  0.69152125  1
  C  C456  1  0.00412248  0.79982400  0.69808191  1
  C  C457  1  0.02626462  0.77805481  0.70152574  1
  C  C458  1  0.04558061  0.78703331  0.69759724  1
  C  C459  1  0.04287221  0.81605488  0.69102942  1
  C  C460  1  0.02910415  0.74731660  0.70879759  1
  C  C461  1  0.05122778  0.72555715  0.71225962  1
  C  C462  1  0.05383237  0.69675219  0.71910354  1
  C  C463  1  0.03458653  0.68769706  0.72273018  1
  C  C464  1  0.01245315  0.70952688  0.71941548  1
  C  C465  1  0.00976043  0.73834631  0.71268252  1
  C  C466  1  0.03690529  0.65756758  0.72883191  1
  C  C467  1  0.03522924  0.63215211  0.73267913  1
  C  C468  1  0.01848897  0.86663372  0.33249638  1
  C  C469  1  0.02012137  0.84161593  0.32544854  1
  C  C470  1  0.02148680  0.81176828  0.31859565  1
  C  C471  1  0.04281652  0.78781803  0.31532169  1
  C  C472  1  0.04390973  0.75833893  0.30907156  1
  C  C473  1  0.02363937  0.75097994  0.30549004  1
  C  C474  1  0.00228482  0.77466595  0.30926091  1
  C  C475  1  0.00129965  0.80410101  0.31544009  1
  C  C476  1  0.02459634  0.71985697  0.29849486  1
  C  C477  1  0.00419837  0.71289615  0.29487343  1
  C  C478  1  0.00503588  0.68316055  0.28907984  1
  C  C479  1  0.02620245  0.65903977  0.28603018  1
  C  C480  1  0.04660587  0.66650203  0.28872754  1
  C  C481  1  0.04588342  0.69590252  0.29477715  1
  C  C482  1  0.02740372  0.62938716  0.27879198  1
  C  C483  1  0.03219505  0.60551702  0.27019020  1
  C  C484  1  0.01728933  0.17039965  0.33105341  1
  C  C485  1  0.01934168  0.19524866  0.32662183  1
  C  C486  1  0.02229141  0.22263049  0.32031233  1
  C  C487  1  0.01259505  0.25320818  0.32732593  1
  C  C488  1  0.01516602  0.27987147  0.32069869  1
  C  C489  1  0.02763841  0.27769779  0.30654611  1
  C  C490  1  0.03805190  0.24683081  0.29983103  1
  C  C491  1  0.03540810  0.22033465  0.30648398  1
  C  C492  1  0.03003548  0.30608978  0.29919715  1
  C  C493  1  0.04253292  0.30370398  0.28505313  1
  C  C494  1  0.04522915  0.33024183  0.27833871  1
  C  C495  1  0.03529617  0.36090461  0.28514077  1
  C  C496  1  0.02232384  0.36343499  0.29908908  1
  C  C497  1  0.01968489  0.33704469  0.30585176  1
  C  C498  1  0.03751308  0.38852919  0.27843239  1
  C  C499  1  0.03626571  0.41557357  0.27500536  1
  C  C500  1  0.01177540  0.03375408  0.49584564  1
  C  C501  1  0.99259089  0.03291508  0.48690677  1
  C  C502  1  0.99430884  0.03130014  0.47055952  1
  C  C503  1  0.01498681  0.03065665  0.46378206  1
  C  C504  1  0.03382026  0.02901697  0.47381635  1
  C  C505  1  0.01086539  0.03688393  0.51310111  1
  C  C506  1  0.03086966  0.03945413  0.53567432  1
  C  C507  1  0.01308032  0.03576773  0.54515296  1
  C  C508  1  0.99228550  0.03732135  0.53788820  1
  C  C509  1  0.99092481  0.03849215  0.52158499  1
  N  N510  1  0.01147194  0.06227676  0.64793129  1
  N  N511  1  0.01307660  0.10278909  0.63163611  1
  N  N512  1  0.01122906  0.01326070  0.63550736  1
  N  N513  1  0.01097205  0.01936237  0.66252907  1
  N  N514  1  0.01407672  0.05566601  0.61968605  1
  N  N515  1  0.01730372  0.00532455  0.60914007  1
  N  N516  1  0.01284758  0.00669029  0.36036000  1
  N  N517  1  0.01399988  0.96469448  0.37664719  1
  N  N518  1  0.01296450  0.05566878  0.37297716  1
  N  N519  1  0.01255987  0.05015634  0.34591933  1
  N  N520  1  0.01456400  0.01092824  0.38862158  1
  N  N521  1  0.01807301  0.05779527  0.39954305  1
  N  N522  1  0.91065393  0.63708586  0.82661798  1
  N  N523  1  0.85027286  0.63141635  0.86283453  1
  N  N524  1  0.91855306  0.56748484  0.17261663  1
  N  N525  1  0.84695453  0.64555208  0.15518127  1
  N  N526  1  0.17783040  0.43703379  0.81216130  1
  N  N527  1  0.22337953  0.41834911  0.86111022  1
  N  N528  1  0.17592078  0.40574252  0.18984659  1
  N  N529  1  0.22915607  0.40887400  0.14725998  1
  N  N530  1  0.03235693  0.03061338  0.48922924  1
  N  N531  1  0.03006923  0.03896233  0.52026278  1
  O  O532  1  0.07243404  0.53426175  0.80273141  1
  O  O533  1  0.07363179  0.52958876  0.77595570  1
  O  O534  1  0.00562608  0.54861832  0.77496312  1
  O  O535  1  0.96784190  0.56049320  0.76788418  1
  O  O536  1  0.01532828  0.59526604  0.73116025  1
  O  O537  1  0.04950400  0.58333490  0.74459834  1
  O  O538  1  0.03357122  0.49293131  0.74840838  1
  O  O539  1  0.05726311  0.44651559  0.75869623  1
  O  O540  1  0.07286116  0.50301691  0.21102732  1
  O  O541  1  0.07222328  0.46937020  0.23084646  1
  O  O542  1  0.00506776  0.53081092  0.23435449  1
  O  O543  1  0.96860167  0.53047861  0.23878577  1
  O  O544  1  0.01811634  0.47088436  0.27815728  1
  O  O545  1  0.04962413  0.45126935  0.26205839  1
  O  O546  1  0.03655740  0.55408325  0.25973866  1
  O  O547  1  0.05124332  0.58687594  0.24645900  1
  O  O548  1  0.72257671  0.65271917  0.04542904  1
  O  O549  1  0.71258021  0.66238772  0.96841266  1
  O  O550  1  0.63678882  0.65863917  0.01168078  1
  O  O551  1  0.36851572  0.34856738  0.96097992  1
  O  O552  1  0.37072629  0.35300270  0.03892879  1
  O  O553  1  0.43634085  0.39216418  0.99542998  1
