# generated using pymatgen
data_H72C133N16O
_symmetry_space_group_name_H-M   'P 1'
_cell_length_a   70.48799219
_cell_length_b   70.94321457
_cell_length_c   37.28888035
_cell_angle_alpha   90.50965425
_cell_angle_beta   90.57553408
_cell_angle_gamma   84.32254617
_symmetry_Int_Tables_number   1
_chemical_formula_structural   H72C133N16O
_chemical_formula_sum   'H144 C266 N32 O2'
_cell_volume   185538.52611109
_cell_formula_units_Z   2
loop_
 _symmetry_equiv_pos_site_id
 _symmetry_equiv_pos_as_xyz
  1  'x, y, z'
loop_
 _atom_site_type_symbol
 _atom_site_label
 _atom_site_symmetry_multiplicity
 _atom_site_fract_x
 _atom_site_fract_y
 _atom_site_fract_z
 _atom_site_occupancy
  H  H0  1  0.03516946  0.48488255  0.96143851  1
  H  H1  1  0.05360380  0.49159116  0.90826704  1
  H  H2  1  0.02845659  0.54922475  0.90916435  1
  H  H3  1  0.00946667  0.54271819  0.96175975  1
  H  H4  1  0.03524343  0.48487443  0.04008417  1
  H  H5  1  0.05374310  0.49159392  0.09412250  1
  H  H6  1  0.00953448  0.54271283  0.04079695  1
  H  H7  1  0.96755687  0.53024074  0.03985747  1
  H  H8  1  0.94913104  0.52351457  0.09303458  1
  H  H9  1  0.97429927  0.46588572  0.09209202  1
  H  H10  1  0.99328238  0.47240775  0.03949072  1
  H  H11  1  0.96748756  0.53025410  0.96130737  1
  H  H12  1  0.94896494  0.52351332  0.90730172  1
  H  H13  1  0.97413556  0.46587832  0.90717955  1
  H  H14  1  0.99321124  0.47241243  0.96062311  1
  H  H15  1  0.02858227  0.54922923  0.09426907  1
  H  H16  1  0.46691851  -0.00118042  0.96012181  1
  H  H17  1  0.46037041  0.97977962  0.90689622  1
  H  H18  1  0.51833444  0.95472690  0.90750483  1
  H  H19  1  0.52507820  0.97318767  0.96135038  1
  H  H20  1  0.46694997  -0.00109667  0.03968448  1
  H  H21  1  0.46043183  0.97992737  0.09214613  1
  H  H22  1  0.52509333  0.97322499  0.03972866  1
  H  H23  1  0.53752973  0.01525239  0.04107870  1
  H  H24  1  0.54408476  0.03430891  0.09430244  1
  H  H25  1  0.48612136  0.05935905  0.09370001  1
  H  H26  1  0.47937036  0.04089403  0.03986161  1
  H  H27  1  0.53750147  0.01515977  0.96158397  1
  H  H28  1  0.54405639  0.03412711  0.90913146  1
  H  H29  1  0.48612098  0.05924842  0.90837857  1
  H  H30  1  0.47937340  0.04087735  0.96145121  1
  H  H31  1  0.51837885  0.95484954  0.09282677  1
  H  H32  1  0.44536535  0.54651044  0.51964306  1
  H  H33  1  0.45458622  0.56887920  0.48629596  1
  H  H34  1  0.56217931  0.46651535  0.49357133  1
  H  H35  1  0.54059517  0.44637586  0.50749232  1
  H  H36  1  0.20581465  0.55953002  0.56422467  1
  H  H37  1  0.26989752  0.56575929  0.56380307  1
  H  H38  1  0.30481851  0.56736396  0.56131780  1
  H  H39  1  0.30368995  0.55503448  0.44788593  1
  H  H40  1  0.26899949  0.55241401  0.45089064  1
  H  H41  1  0.20924965  0.56170374  0.44924690  1
  H  H42  1  0.16823517  0.57022819  0.34814979  1
  H  H43  1  0.14831554  0.56654468  0.29292497  1
  H  H44  1  0.10115510  0.55520275  0.35951772  1
  H  H45  1  0.12179909  0.55677341  0.41432623  1
  H  H46  1  0.15489737  0.56098683  0.49974505  1
  H  H47  1  0.11795925  0.55552000  0.59140271  1
  H  H48  1  0.09835552  0.55655172  0.64717309  1
  H  H49  1  0.14776698  0.56647073  0.71085924  1
  H  H50  1  0.16701818  0.56677530  0.65483447  1
  H  H51  1  0.55730294  0.21106957  0.56460636  1
  H  H52  1  0.54874001  0.27852232  0.56294781  1
  H  H53  1  0.54957617  0.31310085  0.55718382  1
  H  H54  1  0.56239925  0.30573571  0.44476773  1
  H  H55  1  0.56236185  0.27111786  0.45112165  1
  H  H56  1  0.55509952  0.21543299  0.44959192  1
  H  H57  1  0.54968712  0.17646647  0.34873499  1
  H  H58  1  0.54879531  0.15625649  0.29353952  1
  H  H59  1  0.56062647  0.10637084  0.35812018  1
  H  H60  1  0.56270501  0.12668405  0.41293153  1
  H  H61  1  0.55574366  0.16106245  0.49947887  1
  H  H62  1  0.56417706  0.12233016  0.59327076  1
  H  H63  1  0.55962488  0.10373011  0.64868603  1
  H  H64  1  0.54867953  0.15563929  0.70922760  1
  H  H65  1  0.55283247  0.17412758  0.65357670  1
  H  H66  1  0.79771805  0.45199700  0.43653826  1
  H  H67  1  0.73070763  0.46085777  0.43837798  1
  H  H68  1  0.69570123  0.45986028  0.44289532  1
  H  H69  1  0.70203881  0.44684348  0.55534816  1
  H  H70  1  0.73701579  0.44715815  0.55050346  1
  H  H71  1  0.79325588  0.45434377  0.55150719  1
  H  H72  1  0.83199623  0.45981300  0.65249916  1
  H  H73  1  0.85234728  0.46069007  0.70790458  1
  H  H74  1  0.90263036  0.44882942  0.64353468  1
  H  H75  1  0.88215371  0.44680166  0.58848150  1
  H  H76  1  0.84799394  0.45379003  0.50187154  1
  H  H77  1  0.88660841  0.44525711  0.40802525  1
  H  H78  1  0.90534314  0.44996539  0.35252826  1
  H  H79  1  0.85301317  0.46091485  0.29197437  1
  H  H80  1  0.83441312  0.45660412  0.34768778  1
  H  H81  1  0.45001285  0.80302757  0.43707666  1
  H  H82  1  0.43995067  0.73829320  0.43833218  1
  H  H83  1  0.44022746  0.70329404  0.44416394  1
  H  H84  1  0.45154158  0.70777949  0.55694206  1
  H  H85  1  0.45213467  0.74266582  0.55142921  1
  H  H86  1  0.44790894  0.79930551  0.55202303  1
  H  H87  1  0.43941252  0.84040234  0.65326162  1
  H  H88  1  0.44309799  0.86020176  0.70832757  1
  H  H89  1  0.45447188  0.90699318  0.64155700  1
  H  H90  1  0.45297008  0.88646139  0.58695009  1
  H  H91  1  0.44860845  0.85345478  0.50185438  1
  H  H92  1  0.45410429  0.89035717  0.40990389  1
  H  H93  1  0.45320517  0.90979639  0.35414497  1
  H  H94  1  0.44338299  0.86071067  0.29047669  1
  H  H95  1  0.44289325  0.84162089  0.34651278  1
  H  H96  1  0.44599735  0.50062977  0.47691360  1
  H  H97  1  0.42705902  0.53340556  0.48096446  1
  H  H98  1  0.40647445  0.50601095  0.47489521  1
  H  H99  1  0.32901487  0.57493404  0.47719606  1
  H  H100  1  0.33926957  0.54004265  0.47738269  1
  H  H101  1  0.36368213  0.56417568  0.47929530  1
  H  H102  1  0.33032806  0.57564182  0.52458432  1
  H  H103  1  0.33912320  0.53984584  0.52459243  1
  H  H104  1  0.36371232  0.56336645  0.52662251  1
  H  H105  1  0.44682718  0.49998587  0.52418775  1
  H  H106  1  0.42634156  0.53093129  0.52790965  1
  H  H107  1  0.40599797  0.50463317  0.52242941  1
  H  H108  1  0.49452532  0.45056673  0.53237926  1
  H  H109  1  0.52576209  0.43092081  0.52533445  1
  H  H110  1  0.50001346  0.41037343  0.53090177  1
  H  H111  1  0.57168230  0.33537979  0.51912206  1
  H  H112  1  0.53720169  0.34573167  0.53088213  1
  H  H113  1  0.56013446  0.37005662  0.51799876  1
  H  H114  1  0.56701323  0.33483614  0.47246793  1
  H  H115  1  0.53183213  0.34410832  0.48482321  1
  H  H116  1  0.55535923  0.36803809  0.47164931  1
  H  H117  1  0.49087768  0.45099651  0.48559120  1
  H  H118  1  0.52322391  0.43166585  0.47795653  1
  H  H119  1  0.49681810  0.40995055  0.48351540  1
  H  H120  1  0.55827634  0.51538568  0.47642774  1
  H  H121  1  0.57810292  0.48370707  0.47417067  1
  H  H122  1  0.59851697  0.51045174  0.47731564  1
  H  H123  1  0.67325465  0.43903697  0.47474802  1
  H  H124  1  0.66410836  0.47456467  0.47632373  1
  H  H125  1  0.63944827  0.45096995  0.47444367  1
  H  H126  1  0.67358625  0.43884254  0.52221417  1
  H  H127  1  0.66418995  0.47409019  0.52348726  1
  H  H128  1  0.63953279  0.45036916  0.52177556  1
  H  H129  1  0.55814164  0.51431628  0.52354346  1
  H  H130  1  0.57768691  0.48274638  0.52170641  1
  H  H131  1  0.59828936  0.50968103  0.52495306  1
  H  H132  1  0.47048537  0.55501500  0.45807554  1
  H  H133  1  0.49706906  0.58095125  0.47613598  1
  H  H134  1  0.46307588  0.59233516  0.47530153  1
  H  H135  1  0.47275199  0.68615264  0.47361751  1
  H  H136  1  0.44726621  0.66391483  0.47506050  1
  H  H137  1  0.48289801  0.65447992  0.47541508  1
  H  H138  1  0.47403648  0.68632200  0.52116023  1
  H  H139  1  0.44742689  0.66447585  0.52238046  1
  H  H140  1  0.48307212  0.65525470  0.52289975  1
  H  H141  1  0.47860050  0.56237085  0.53871195  1
  H  H142  1  0.49917976  0.58523083  0.52270569  1
  H  H143  1  0.46191184  0.59200487  0.52304481  1
  C  C144  1  0.99220168  0.50521959  0.00053301  1
  C  C145  1  0.01056441  0.50992359  0.00080518  1
  C  C146  1  0.02118511  0.51340274  0.96684375  1
  C  C147  1  0.02127094  0.51340409  0.03517037  1
  C  C148  1  0.98157223  0.50173082  0.03447171  1
  C  C149  1  0.98148137  0.50172906  0.96619795  1
  C  C150  1  0.03364493  0.49915355  0.95048322  1
  C  C151  1  0.04394730  0.50281632  0.92021401  1
  C  C152  1  0.04252507  0.52096470  0.90436826  1
  C  C153  1  0.02977931  0.53508230  0.92070812  1
  C  C154  1  0.01930917  0.53140734  0.95063279  1
  C  C155  1  0.03373759  0.49914423  0.05146801  1
  C  C156  1  0.04406400  0.50280688  0.08220911  1
  C  C157  1  0.04263492  0.52095156  0.09860967  1
  C  C158  1  0.02988664  0.53508570  0.08230349  1
  C  C159  1  0.01939384  0.53141172  0.05190101  1
  C  C160  1  0.96909519  0.51597107  0.05081811  1
  C  C161  1  0.95879636  0.51229837  0.08108217  1
  C  C162  1  0.96024154  0.49414656  0.09691606  1
  C  C163  1  0.97297931  0.48003037  0.08055800  1
  C  C164  1  0.98344503  0.48371509  0.05064202  1
  C  C165  1  0.96899331  0.51598340  0.94992939  1
  C  C166  1  0.95864613  0.51230675  0.91923076  1
  C  C167  1  0.96006842  0.49414554  0.90289259  1
  C  C168  1  0.97283552  0.48001923  0.91915562  1
  C  C169  1  0.98334822  0.48370791  0.94951361  1
  C  C170  1  0.50454204  0.01618943  0.00076454  1
  C  C171  1  0.49990164  0.99789141  0.00044855  1
  C  C172  1  0.49641469  0.98720435  0.96606059  1
  C  C173  1  0.49643481  0.98726085  0.03442481  1
  C  C174  1  0.50803410  0.02687685  0.03514710  1
  C  C175  1  0.50802082  0.02682145  0.96679653  1
  C  C176  1  0.47831388  0.98900039  0.94919655  1
  C  C177  1  0.47460923  0.97847771  0.91888484  1
  C  C178  1  0.48878845  0.96572225  0.90271798  1
  C  C179  1  0.50703188  0.96437383  0.91924562  1
  C  C180  1  0.51071831  0.97471652  0.94991879  1
  C  C181  1  0.47834708  0.98908839  0.05071755  1
  C  C182  1  0.47465751  0.97860249  0.08059370  1
  C  C183  1  0.48884012  0.96585248  0.09687017  1
  C  C184  1  0.50707245  0.96448028  0.08095095  1
  C  C185  1  0.51074200  0.97478100  0.05070332  1
  C  C186  1  0.52613938  0.02507858  0.05199939  1
  C  C187  1  0.52985159  0.03561217  0.08228796  1
  C  C188  1  0.51568226  0.04838864  0.09841691  1
  C  C189  1  0.49742566  0.04972201  0.08193857  1
  C  C190  1  0.49373205  0.03936883  0.05128499  1
  C  C191  1  0.52611607  0.02498278  0.95053576  1
  C  C192  1  0.52982933  0.03547000  0.92067662  1
  C  C193  1  0.51567577  0.04824587  0.90440050  1
  C  C194  1  0.49742438  0.04961893  0.92026773  1
  C  C195  1  0.49373029  0.03931316  0.95049932  1
  C  C196  1  0.49724681  0.52652440  0.49947800  1
  C  C197  1  0.46579025  0.55700353  0.48614529  1
  C  C198  1  0.49631007  0.54561840  0.50453808  1
  C  C199  1  0.51757335  0.51936878  0.49294038  1
  C  C200  1  0.52306548  0.49901097  0.49752051  1
  C  C201  1  0.54313114  0.49281574  0.49726212  1
  C  C202  1  0.51460827  0.46623619  0.50408478  1
  C  C203  1  0.50878090  0.48631389  0.50169418  1
  C  C204  1  0.48817963  0.49357892  0.50328569  1
  C  C205  1  0.48236680  0.51404555  0.50084301  1
  C  C206  1  0.53424332  0.46087268  0.50346717  1
  C  C207  1  0.54777959  0.47329285  0.49765549  1
  C  C208  1  0.46252284  0.52177156  0.50082448  1
  C  C209  1  0.45685829  0.54099319  0.50174472  1
  C  C210  1  0.19877740  0.55986696  0.53808243  1
  C  C211  1  0.20971255  0.56015965  0.50702434  1
  C  C212  1  0.22977997  0.55955451  0.50909128  1
  C  C213  1  0.24716308  0.55926034  0.50908381  1
  C  C214  1  0.26702731  0.55950577  0.50738012  1
  C  C215  1  0.27751726  0.56340692  0.53859943  1
  C  C216  1  0.29688261  0.56461512  0.53693976  1
  C  C217  1  0.30632446  0.56300687  0.50387233  1
  C  C218  1  0.29630127  0.55752791  0.47326126  1
  C  C219  1  0.27697784  0.55597162  0.47481399  1
  C  C220  1  0.20069872  0.56133926  0.47333795  1
  C  C221  1  0.18092931  0.56195510  0.47054756  1
  C  C222  1  0.17059495  0.56301083  0.43786367  1
  C  C223  1  0.15945886  0.56334728  0.41249127  1
  C  C224  1  0.14645743  0.56291713  0.38382544  1
  C  C225  1  0.15365631  0.56647593  0.34953743  1
  C  C226  1  0.14272812  0.56444182  0.31951941  1
  C  C227  1  0.12393614  0.55916038  0.32290201  1
  C  C228  1  0.11608851  0.55773255  0.35758833  1
  C  C229  1  0.12726235  0.55900799  0.38765024  1
  C  C230  1  0.17033457  0.56097153  0.50177880  1
  C  C231  1  0.17897200  0.56003019  0.53555579  1
  C  C232  1  0.16674048  0.55962975  0.56525041  1
  C  C233  1  0.15594571  0.55976104  0.59070790  1
  C  C234  1  0.14385517  0.56024649  0.62038190  1
  C  C235  1  0.12420950  0.55777978  0.61772284  1
  C  C236  1  0.11360351  0.55785853  0.64833317  1
  C  C237  1  0.12243085  0.55915820  0.68255738  1
  C  C238  1  0.14158257  0.56363342  0.68475651  1
  C  C239  1  0.15208573  0.56405414  0.65418628  1
  C  C240  1  0.55697590  0.20424938  0.53837012  1
  C  C241  1  0.55618127  0.21542375  0.50753935  1
  C  C242  1  0.55616104  0.23531481  0.51070257  1
  C  C243  1  0.55606424  0.25258343  0.51079751  1
  C  C244  1  0.55602324  0.27234442  0.50772907  1
  C  C245  1  0.55198412  0.28464273  0.53726384  1
  C  C246  1  0.55253324  0.30395967  0.53386859  1
  C  C247  1  0.55753540  0.31178305  0.50110439  1
  C  C248  1  0.55992709  0.29978788  0.47094026  1
  C  C249  1  0.55963025  0.28048410  0.47424044  1
  C  C250  1  0.55552493  0.20677625  0.47360363  1
  C  C251  1  0.55541689  0.18717419  0.47054655  1
  C  C252  1  0.55514346  0.17686410  0.43796887  1
  C  C253  1  0.55524675  0.16563256  0.41291160  1
  C  C254  1  0.55530555  0.15278629  0.38401229  1
  C  C255  1  0.55186867  0.16108101  0.34989847  1
  C  C256  1  0.55103044  0.14997186  0.31993305  1
  C  C257  1  0.55274393  0.12994603  0.32299756  1
  C  C258  1  0.55787235  0.12171564  0.35670949  1
  C  C259  1  0.55909525  0.13288183  0.38683015  1
  C  C260  1  0.55604898  0.17635982  0.50169240  1
  C  C261  1  0.55727111  0.18455969  0.53557486  1
  C  C262  1  0.55838874  0.17196938  0.56487436  1
  C  C263  1  0.55879905  0.16098858  0.59000440  1
  C  C264  1  0.55794087  0.14934779  0.62006843  1
  C  C265  1  0.56049595  0.12933476  0.61871866  1
  C  C266  1  0.55800571  0.11914427  0.64918766  1
  C  C267  1  0.55289089  0.12846361  0.68204065  1
  C  C268  1  0.55173575  0.14854079  0.68365726  1
  C  C269  1  0.55412434  0.15870536  0.65334004  1
  C  C270  1  0.80458564  0.45235117  0.46277953  1
  C  C271  1  0.79338917  0.45311969  0.49359811  1
  C  C272  1  0.77341696  0.45302760  0.49061254  1
  C  C273  1  0.75605566  0.45313229  0.49079331  1
  C  C274  1  0.73620923  0.45326379  0.49370730  1
  C  C275  1  0.72422800  0.45749338  0.46367347  1
  C  C276  1  0.70482100  0.45678903  0.46628553  1
  C  C277  1  0.69684808  0.45119858  0.49845819  1
  C  C278  1  0.70837228  0.44925006  0.52947258  1
  C  C279  1  0.72779629  0.44975530  0.52704703  1
  C  C280  1  0.80200169  0.45392843  0.52756043  1
  C  C281  1  0.82168091  0.45418718  0.53066168  1
  C  C282  1  0.83192149  0.45458288  0.56332905  1
  C  C283  1  0.84310545  0.45444751  0.58857506  1
  C  C284  1  0.85596626  0.45428803  0.61753576  1
  C  C285  1  0.84748298  0.45763832  0.65152836  1
  C  C286  1  0.85863243  0.45842475  0.68150773  1
  C  C287  1  0.87878549  0.45664546  0.67829573  1
  C  C288  1  0.88718353  0.45154800  0.64473257  1
  C  C289  1  0.87597948  0.45039368  0.61460609  1
  C  C290  1  0.83260303  0.45346271  0.49958936  1
  C  C291  1  0.82437337  0.45211532  0.46570812  1
  C  C292  1  0.83698773  0.45095639  0.43642220  1
  C  C293  1  0.84790614  0.45054219  0.41113262  1
  C  C294  1  0.85948066  0.45146611  0.38098483  1
  C  C295  1  0.87961455  0.44894266  0.38251928  1
  C  C296  1  0.88983159  0.45151789  0.35213545  1
  C  C297  1  0.88033703  0.45667796  0.31940863  1
  C  C298  1  0.86012945  0.45781287  0.31756892  1
  C  C299  1  0.84993386  0.45533561  0.34782348  1
  C  C300  1  0.44966838  0.81001132  0.46321154  1
  C  C301  1  0.44917968  0.79908870  0.49413959  1
  C  C302  1  0.44901600  0.77925527  0.49093262  1
  C  C303  1  0.44823118  0.76210946  0.49090500  1
  C  C304  1  0.44715511  0.74255713  0.49404669  1
  C  C305  1  0.44280778  0.73134180  0.46405890  1
  C  C306  1  0.44347015  0.71195456  0.46726565  1
  C  C307  1  0.45077254  0.70346530  0.49923630  1
  C  C308  1  0.44972762  0.71453378  0.53084704  1
  C  C309  1  0.44947133  0.73386935  0.52812977  1
  C  C310  1  0.44827374  0.80786853  0.52800022  1
  C  C311  1  0.44783203  0.82750051  0.53093055  1
  C  C312  1  0.44687324  0.83774593  0.56363456  1
  C  C313  1  0.44653721  0.84891772  0.58882504  1
  C  C314  1  0.44689558  0.86190434  0.61740953  1
  C  C315  1  0.44324734  0.85486556  0.65175758  1
  C  C316  1  0.44528919  0.86575407  0.68175357  1
  C  C317  1  0.45066841  0.88441001  0.67845874  1
  C  C318  1  0.45201971  0.89213705  0.64366809  1
  C  C319  1  0.45076098  0.88099707  0.61362367  1
  C  C320  1  0.44868970  0.83811561  0.49972775  1
  C  C321  1  0.44960208  0.82965654  0.46585284  1
  C  C322  1  0.44997883  0.84186807  0.43621038  1
  C  C323  1  0.44985457  0.85260303  0.41074329  1
  C  C324  1  0.44943151  0.86460015  0.38101778  1
  C  C325  1  0.45191958  0.88411661  0.38358356  1
  C  C326  1  0.45196003  0.89463587  0.35292331  1
  C  C327  1  0.45085041  0.88585897  0.31866793  1
  C  C328  1  0.44623238  0.86686456  0.31656683  1
  C  C329  1  0.44567625  0.85644597  0.34717372  1
  C  C330  1  0.44570961  0.50962341  0.50118138  1
  C  C331  1  0.42687510  0.52287205  0.50247181  1
  C  C332  1  0.40749583  0.51449414  0.49987674  1
  C  C333  1  0.39193217  0.52950076  0.50087175  1
  C  C334  1  0.32711418  0.56656382  0.50156478  1
  C  C335  1  0.34141976  0.54881428  0.50133459  1
  C  C336  1  0.36184455  0.55456714  0.50219012  1
  C  C337  1  0.37621052  0.53865525  0.50123753  1
  C  C338  1  0.50203496  0.45004451  0.50654768  1
  C  C339  1  0.51525256  0.43129067  0.50321225  1
  C  C340  1  0.50745120  0.41173314  0.50507871  1
  C  C341  1  0.52311643  0.39685461  0.50233977  1
  C  C342  1  0.56068617  0.33258769  0.49882344  1
  C  C343  1  0.54322943  0.34698888  0.50398166  1
  C  C344  1  0.54868586  0.36720507  0.49846177  1
  C  C345  1  0.53270280  0.38143479  0.50163061  1
  C  C346  1  0.55911252  0.50546993  0.49896718  1
  C  C347  1  0.57784729  0.49243593  0.49878744  1
  C  C348  1  0.59710387  0.50092188  0.50037919  1
  C  C349  1  0.61227651  0.48566676  0.49980232  1
  C  C350  1  0.67605165  0.44763853  0.49879782  1
  C  C351  1  0.66195358  0.46543276  0.49939015  1
  C  C352  1  0.64152300  0.45981099  0.49871524  1
  C  C353  1  0.62773352  0.47607222  0.49950359  1
  C  C354  1  0.48283033  0.56170530  0.50999692  1
  C  C355  1  0.48929295  0.58120113  0.50165541  1
  C  C356  1  0.47122484  0.59508485  0.50021511  1
  C  C357  1  0.47391859  0.61489874  0.50092764  1
  C  C358  1  0.46416054  0.68540022  0.49815463  1
  C  C359  1  0.45633028  0.66604734  0.49867494  1
  C  C360  1  0.47415397  0.65189796  0.49929791  1
  C  C361  1  0.47112917  0.63220487  0.50033254  1
  C  C362  1  0.07293525  0.53508672  0.81842930  1
  C  C363  1  0.09178738  0.54539775  0.76766838  1
  C  C364  1  0.06231816  0.52954265  0.84788978  1
  C  C365  1  0.05315938  0.52519764  0.87382814  1
  C  C366  1  0.10260490  0.55129804  0.73895020  1
  C  C367  1  0.11192213  0.55581665  0.71341155  1
  C  C368  1  0.52985160  0.07844292  0.81824600  1
  C  C369  1  0.53932149  0.09749509  0.76694483  1
  C  C370  1  0.52442818  0.06791519  0.84792110  1
  C  C371  1  0.51995920  0.05890177  0.87392727  1
  C  C372  1  0.54460479  0.10851713  0.73802216  1
  C  C373  1  0.54893867  0.11790128  0.71247256  1
  C  C374  1  0.92998267  0.48004725  0.18305268  1
  C  C375  1  0.91119034  0.47033963  0.23439210  1
  C  C376  1  0.94054732  0.48553063  0.15348388  1
  C  C377  1  0.94964598  0.48988878  0.12748008  1
  C  C378  1  0.90038765  0.46496168  0.26353615  1
  C  C379  1  0.89101389  0.46069158  0.28917516  1
  C  C380  1  0.47456392  0.93570328  0.18298660  1
  C  C381  1  0.46465367  0.91662817  0.23381799  1
  C  C382  1  0.48012962  0.94619204  0.15337740  1
  C  C383  1  0.48464625  0.95518967  0.12738854  1
  C  C384  1  0.45898964  0.90554054  0.26233565  1
  C  C385  1  0.45435883  0.89622739  0.28775239  1
  C  C386  1  0.52997038  0.07869454  0.18587887  1
  C  C387  1  0.53957469  0.09779212  0.23795820  1
  C  C388  1  0.52446506  0.06815300  0.15573299  1
  C  C389  1  0.51994752  0.05909636  0.12934707  1
  C  C390  1  0.54494508  0.10891025  0.26724085  1
  C  C391  1  0.54928156  0.11863455  0.29279553  1
  C  C392  1  0.07323526  0.53522339  0.18577673  1
  C  C393  1  0.09225325  0.54520731  0.23759735  1
  C  C394  1  0.06255636  0.52959947  0.15588766  1
  C  C395  1  0.05330487  0.52515309  0.12965474  1
  C  C396  1  0.10327873  0.55078095  0.26687502  1
  C  C397  1  0.11290602  0.55524675  0.29252462  1
  C  C398  1  0.92958390  0.48007405  0.81546829  1
  C  C399  1  0.91064211  0.47011271  0.76360205  1
  C  C400  1  0.94023650  0.48555954  0.84547744  1
  C  C401  1  0.94939939  0.48989971  0.87189559  1
  C  C402  1  0.89978048  0.46447518  0.73416738  1
  C  C403  1  0.89021384  0.46008751  0.70837497  1
  C  C404  1  0.47437169  0.93527893  0.81551693  1
  C  C405  1  0.46456532  0.91615131  0.76361011  1
  C  C406  1  0.48001000  0.94586700  0.84550889  1
  C  C407  1  0.48456290  0.95501742  0.87175010  1
  C  C408  1  0.45911801  0.90497959  0.73445962  1
  C  C409  1  0.45462554  0.89534755  0.70889390  1
  N  N410  1  0.06261113  0.54120217  0.78870706  1
  N  N411  1  0.07249850  0.54658985  0.76211959  1
  N  N412  1  0.10216879  0.53883177  0.79697131  1
  N  N413  1  0.09229780  0.53341853  0.82351139  1
  N  N414  1  0.51516472  0.08760354  0.79888031  1
  N  N415  1  0.52012606  0.09757441  0.77213164  1
  N  N416  1  0.55400208  0.08790678  0.78557761  1
  N  N417  1  0.54903834  0.07792655  0.81233686  1
  N  N418  1  0.91058024  0.48293132  0.17903149  1
  N  N419  1  0.90074145  0.47781065  0.20585929  1
  N  N420  1  0.93056305  0.46749161  0.23854329  1
  N  N421  1  0.94041271  0.47260049  0.21167025  1
  N  N422  1  0.45531900  0.93520090  0.18683255  1
  N  N423  1  0.45012565  0.92520749  0.21336166  1
  N  N424  1  0.48384620  0.91771740  0.23090543  1
  N  N425  1  0.48904613  0.92770355  0.20435337  1
  N  N426  1  0.51555124  0.08536254  0.20838441  1
  N  N427  1  0.52058629  0.09535984  0.23557182  1
  N  N428  1  0.55409109  0.09062338  0.21619116  1
  N  N429  1  0.54905826  0.08061299  0.18901167  1
  N  N430  1  0.06622192  0.53163267  0.21888227  1
  N  N431  1  0.07619661  0.53688111  0.24602745  1
  N  N432  1  0.09920553  0.54893852  0.20454383  1
  N  N433  1  0.08924927  0.54369259  0.17743951  1
  N  N434  1  0.93981607  0.47053223  0.78876472  1
  N  N435  1  0.92987775  0.46529327  0.76157731  1
  N  N436  1  0.90042673  0.47993280  0.78995995  1
  N  N437  1  0.91035576  0.48518395  0.81710535  1
  N  N438  1  0.48500051  0.93619628  0.78514888  1
  N  N439  1  0.47986052  0.92618781  0.75803237  1
  N  N440  1  0.45358758  0.91565332  0.79357302  1
  N  N441  1  0.45871732  0.92565727  0.82065721  1
  O  O442  1  0.52924612  0.53049549  0.48387072  1
  O  O443  1  0.47607328  0.48203978  0.50754147  1
