# generated using pymatgen
data_CoH258C246(N2O)12
_symmetry_space_group_name_H-M   'P 1'
_cell_length_a   79.39744682
_cell_length_b   76.58876774
_cell_length_c   38.44507587
_cell_angle_alpha   89.66990716
_cell_angle_beta   89.59299210
_cell_angle_gamma   120.27101938
_symmetry_Int_Tables_number   1
_chemical_formula_structural   CoH258C246(N2O)12
_chemical_formula_sum   'Co1 H258 C246 N24 O12'
_cell_volume   201889.65679184
_cell_formula_units_Z   1
loop_
 _symmetry_equiv_pos_site_id
 _symmetry_equiv_pos_as_xyz
  1  'x, y, z'
loop_
 _atom_site_type_symbol
 _atom_site_label
 _atom_site_symmetry_multiplicity
 _atom_site_fract_x
 _atom_site_fract_y
 _atom_site_fract_z
 _atom_site_occupancy
  Co  Co0  1  0.69214588  0.35743773  0.50159770  1
  H  H1  1  0.94200195  0.88704741  0.98358149  1
  H  H2  1  0.92984993  0.89421533  0.05618831  1
  H  H3  1  0.95290036  0.92403976  0.08518212  1
  H  H4  1  0.98013626  0.95902966  0.08484710  1
  H  H5  1  0.98900193  0.95496295  0.97506136  1
  H  H6  1  0.96145173  0.91983068  0.97509905  1
  H  H7  1  0.01017099  0.98682890  0.07872339  1
  H  H8  1  0.99138469  0.99129318  0.06524652  1
  H  H9  1  0.98972905  0.02990794  0.01753491  1
  H  H10  1  0.98757648  0.01799016  0.05795587  1
  H  H11  1  0.98440854  0.00452781  0.01895255  1
  H  H12  1  0.03513095  0.98984566  0.06513068  1
  H  H13  1  0.05053439  0.01052353  0.09172584  1
  H  H14  1  0.05934504  0.00639340  0.05198243  1
  H  H15  1  0.05919134  0.07991516  0.99025218  1
  H  H16  1  0.07323567  0.06820720  0.98196589  1
  H  H17  1  0.07508847  0.08010598  0.02208527  1
  H  H18  1  0.08458568  0.06030667  0.04170096  1
  H  H19  1  0.07853245  0.03499915  0.05063365  1
  H  H20  1  0.10862856  0.05513466  0.04884841  1
  H  H21  1  0.14292618  0.06641773  0.03966355  1
  H  H22  1  0.13349780  0.05697016  0.92902692  1
  H  H23  1  0.09819859  0.04412252  0.93884173  1
  H  H24  1  0.16621455  0.06847097  0.95214464  1
  H  H25  1  0.17206067  0.08639493  0.02573606  1
  H  H26  1  0.03232137  0.06645794  0.97483123  1
  H  H27  1  0.00779847  0.05044975  0.98777913  1
  H  H28  1  0.01333672  0.07831364  0.95824426  1
  H  H29  1  0.99700790  0.09758201  0.94555469  1
  H  H30  1  0.00300343  0.11600316  0.05291583  1
  H  H31  1  0.01844786  0.09563147  0.06587901  1
  H  H32  1  0.98868794  0.12272193  0.96163801  1
  H  H33  1  0.97801763  0.12147416  0.03896350  1
  H  H34  1  0.85083641  0.38379933  0.78389748  1
  H  H35  1  0.80909251  0.34668646  0.79337077  1
  H  H36  1  0.80379129  0.32642719  0.84476378  1
  H  H37  1  0.81495345  0.31785241  0.89799136  1
  H  H38  1  0.87291703  0.36825848  0.87940230  1
  H  H39  1  0.86198908  0.37679327  0.82580312  1
  H  H40  1  0.83214141  0.30914155  0.93495714  1
  H  H41  1  0.82786839  0.32733585  0.95485234  1
  H  H42  1  0.84435443  0.35593633  0.03180962  1
  H  H43  1  0.82498931  0.33470635  0.01192317  1
  H  H44  1  0.84285196  0.35483351  0.98602270  1
  H  H45  1  0.85454995  0.30506543  0.92217650  1
  H  H46  1  0.84717128  0.28450306  0.95146956  1
  H  H47  1  0.87200518  0.29977413  0.93915720  1
  H  H48  1  0.88829232  0.33493863  0.08537274  1
  H  H49  1  0.90206680  0.33024932  0.05404178  1
  H  H50  1  0.88152981  0.30996141  0.07467622  1
  H  H51  1  0.88236947  0.29480802  0.02829602  1
  H  H52  1  0.87831283  0.29136711  0.98286240  1
  H  H53  1  0.89233063  0.27686464  0.00344993  1
  H  H54  1  0.91271050  0.26227026  0.00546848  1
  H  H55  1  0.96393010  0.32149744  0.98817207  1
  H  H56  1  0.94247144  0.33623565  0.98680308  1
  H  H57  1  0.96806730  0.29037385  0.99604641  1
  H  H58  1  0.92754336  0.25166821  0.00524699  1
  H  H59  1  0.88275655  0.35704335  0.07605002  1
  H  H60  1  0.86383281  0.36119318  0.06278908  1
  H  H61  1  0.87973881  0.37600879  0.11465633  1
  H  H62  1  0.87464973  0.39270486  0.16460247  1
  H  H63  1  0.82375638  0.33621144  0.19535623  1
  H  H64  1  0.82985339  0.31930466  0.14655868  1
  H  H65  1  0.85308266  0.39286678  0.21147847  1
  H  H66  1  0.82630228  0.35068176  0.24433352  1
  H  H67  1  0.53744175  0.21892738  0.23769691  1
  H  H68  1  0.56020488  0.19759454  0.21880876  1
  H  H69  1  0.54321718  0.17216418  0.17052317  1
  H  H70  1  0.52448633  0.16295700  0.11657394  1
  H  H71  1  0.51423117  0.21282506  0.12962831  1
  H  H72  1  0.53493543  0.22343762  0.18178179  1
  H  H73  1  0.49885047  0.15355315  0.07776683  1
  H  H74  1  0.52096814  0.17213887  0.05810235  1
  H  H75  1  0.53259329  0.20153255  0.98062577  1
  H  H76  1  0.53146280  0.18025035  1.00083577  1
  H  H77  1  0.53262481  0.19996929  0.02645200  1
  H  H78  1  0.47243567  0.14997240  0.09083777  1
  H  H79  1  0.45954147  0.12921215  0.06272553  1
  H  H80  1  0.45001752  0.14499420  0.07361445  1
  H  H81  1  0.46834450  0.18065243  0.92709826  1
  H  H82  1  0.45007627  0.17576094  0.95887500  1
  H  H83  1  0.45064148  0.15560291  0.93798337  1
  H  H84  1  0.43498577  0.13963246  0.98392623  1
  H  H85  1  0.43557101  0.13519083  0.02911175  1
  H  H86  1  0.40656238  0.12184997  0.00951484  1
  H  H87  1  0.37180131  0.10970260  0.00696113  1
  H  H88  1  0.38293627  0.17030252  0.02510349  1
  H  H89  1  0.41840393  0.18262822  0.02702738  1
  H  H90  1  0.35035698  0.14447642  0.01791491  1
  H  H91  1  0.34244213  0.10111489  0.00403765  1
  H  H92  1  0.49536409  0.20272053  0.93603295  1
  H  H93  1  0.51830931  0.20692779  0.94939169  1
  H  H94  1  0.51778873  0.22235195  0.89667275  1
  H  H95  1  0.53809869  0.23852859  0.84491879  1
  H  H96  1  0.53132763  0.18097424  0.81437695  1
  H  H97  1  0.51143552  0.16523289  0.86649802  1
  H  H98  1  0.55541832  0.23756762  0.79210772  1
  H  H99  1  0.54853618  0.19470139  0.77633429  1
  H  H100  1  0.67287633  0.49763488  0.78356443  1
  H  H101  1  0.70230320  0.48339144  0.80144707  1
  H  H102  1  0.72342137  0.49994527  0.84891178  1
  H  H103  1  0.73337098  0.52215480  0.89966740  1
  H  H104  1  0.68703900  0.53479087  0.88037731  1
  H  H105  1  0.67719794  0.51292393  0.82896419  1
  H  H106  1  0.74320885  0.54852264  0.93249998  1
  H  H107  1  0.72498079  0.52619968  0.95340858  1
  H  H108  1  0.69697342  0.51537787  0.03017249  1
  H  H109  1  0.71667121  0.51534948  0.00889025  1
  H  H110  1  0.69790877  0.51536283  0.98429010  1
  H  H111  1  0.74815578  0.57613757  0.91955079  1
  H  H112  1  0.76834774  0.58834387  0.94759462  1
  H  H113  1  0.75469760  0.60000192  0.93624698  1
  H  H114  1  0.71965932  0.58267075  0.08306119  1
  H  H115  1  0.72541659  0.60208745  0.05171339  1
  H  H116  1  0.74414011  0.59993832  0.07218718  1
  H  H117  1  0.75992631  0.61593005  0.02545449  1
  H  H118  1  0.76327028  0.61503489  0.97985796  1
  H  H119  1  0.77844583  0.64440978  1.00042873  1
  H  H120  1  0.79397971  0.68097510  -0.00380102  1
  H  H121  1  0.73770393  0.67631881  0.98596515  1
  H  H122  1  0.72232921  0.63906440  0.98379187  1
  H  H123  1  0.76930224  0.71152599  0.98921758  1
  H  H124  1  0.80088963  0.70604126  0.02517773  1
  H  H125  1  0.69779061  0.55529682  0.07435416  1
  H  H126  1  0.69263560  0.53111340  0.06094559  1
  H  H127  1  0.67897391  0.53342176  0.11064554  1
  H  H128  1  0.66147449  0.51155593  0.16079898  1
  H  H129  1  0.71399454  0.51189729  0.19135582  1
  H  H130  1  0.73197764  0.53543841  0.14255992  1
  H  H131  1  0.66010297  0.48810506  0.20848433  1
  H  H132  1  0.69996722  0.50485350  0.24354632  1
  H  H133  1  0.70854982  0.34606564  0.56416065  1
  H  H134  1  0.76064813  0.40410147  0.58561270  1
  H  H135  1  0.75712754  0.41603035  0.52838826  1
  H  H136  1  0.75048800  0.42471700  0.47741784  1
  H  H137  1  0.73508168  0.43400398  0.43090329  1
  H  H138  1  0.68673327  0.37341808  0.43282242  1
  H  H139  1  0.67909741  0.33918631  0.43284698  1
  H  H140  1  0.61840806  0.32333732  0.43105392  1
  H  H141  1  0.62386532  0.34280440  0.48499681  1
  H  H142  1  0.63189936  0.35574954  0.54141948  1
  H  H143  1  0.64600912  0.37412776  0.59600001  1
  H  H144  1  0.70348013  0.38963324  0.55730543  1
  H  H145  1  0.67358944  0.34756076  0.57208666  1
  H  H146  1  0.64829226  0.28240785  0.57908701  1
  H  H147  1  0.66413965  0.28374138  0.52280391  1
  H  H148  1  0.68112848  0.28975261  0.47086907  1
  H  H149  1  0.70825706  0.30168863  0.42782626  1
  H  H150  1  0.72229638  0.36309745  0.44705669  1
  H  H151  1  0.84094756  0.38873832  0.73211221  1
  H  H152  1  0.72509567  0.35290544  0.61947160  1
  H  H153  1  0.80187806  0.35189623  0.74356321  1
  H  H154  1  0.81624139  0.35573906  0.70565978  1
  H  H155  1  0.80073655  0.38324958  0.72942029  1
  H  H156  1  0.81638245  0.38824273  0.69322366  1
  H  H157  1  0.79117559  0.35670459  0.66439090  1
  H  H158  1  0.77562062  0.35052582  0.70108050  1
  H  H159  1  0.74975199  0.38458148  0.65315332  1
  H  H160  1  0.76543150  0.38856112  0.61715942  1
  H  H161  1  0.76310852  0.35522900  0.62885991  1
  H  H162  1  0.74848997  0.35172722  0.66609456  1
  H  H163  1  0.77546123  0.38342811  0.69200297  1
  H  H164  1  0.78992930  0.38813380  0.65427751  1
  H  H165  1  0.57095344  0.24795896  0.24000547  1
  H  H166  1  0.65564707  0.30964988  0.40471544  1
  H  H167  1  0.57131210  0.22217980  0.29699933  1
  H  H168  1  0.55811356  0.23517075  0.30120128  1
  H  H169  1  0.60170281  0.25378490  0.28422880  1
  H  H170  1  0.58921873  0.26726004  0.27977701  1
  H  H171  1  0.58098499  0.26234023  0.34426138  1
  H  H172  1  0.59550741  0.25100656  0.34858400  1
  H  H173  1  0.64584483  0.31322743  0.35028792  1
  H  H174  1  0.63207803  0.32366487  0.36750683  1
  H  H175  1  0.60548180  0.29092524  0.38489762  1
  H  H176  1  0.62066247  0.28021360  0.38583881  1
  H  H177  1  0.62400012  0.28242711  0.32137308  1
  H  H178  1  0.60938940  0.29368732  0.31896765  1
  H  H179  1  0.57557475  0.21152893  0.74207529  1
  H  H180  1  0.65360275  0.32965143  0.61753739  1
  H  H181  1  0.56389060  0.24229872  0.72751709  1
  H  H182  1  0.56411122  0.22565021  0.69575080  1
  H  H183  1  0.59942387  0.25808897  0.73466309  1
  H  H184  1  0.60002154  0.23886897  0.71053022  1
  H  H185  1  0.59181263  0.25079249  0.65607856  1
  H  H186  1  0.59047104  0.26985072  0.67943451  1
  H  H187  1  0.65340108  0.30974244  0.66461924  1
  H  H188  1  0.65443968  0.29243675  0.63537796  1
  H  H189  1  0.61975358  0.27938301  0.61898674  1
  H  H190  1  0.61884757  0.29797282  0.64461802  1
  H  H191  1  0.62547505  0.28370000  0.69822542  1
  H  H192  1  0.62665231  0.26514364  0.67311417  1
  H  H193  1  0.66781214  0.46207538  0.23991088  1
  H  H194  1  0.69423886  0.42316810  0.43359294  1
  H  H195  1  0.69423021  0.48494327  0.29670320  1
  H  H196  1  0.70486270  0.47626475  0.26581904  1
  H  H197  1  0.66682368  0.44953570  0.30692644  1
  H  H198  1  0.67628932  0.44060004  0.27429552  1
  H  H199  1  0.70749916  0.45375697  0.30882576  1
  H  H200  1  0.69717409  0.46157065  0.34161512  1
  H  H201  1  0.67128198  0.40162071  0.38826456  1
  H  H202  1  0.68961997  0.39665486  0.37319033  1
  H  H203  1  0.71076460  0.43138125  0.35511705  1
  H  H204  1  0.69974328  0.44027174  0.38445473  1
  H  H205  1  0.66949306  0.42534908  0.34834117  1
  H  H206  1  0.68092762  0.41777533  0.31718032  1
  H  H207  1  0.68048176  0.48979453  0.72688626  1
  H  H208  1  0.68134273  0.38535932  0.63300165  1
  H  H209  1  0.66894891  0.45093762  0.75926776  1
  H  H210  1  0.69451633  0.46491326  0.75292731  1
  H  H211  1  0.66442718  0.45589501  0.69580163  1
  H  H212  1  0.69000643  0.47030287  0.69017838  1
  H  H213  1  0.69223146  0.43979140  0.71024172  1
  H  H214  1  0.66652891  0.42548184  0.71220829  1
  H  H215  1  0.66859369  0.40936880  0.60179223  1
  H  H216  1  0.69417661  0.42492363  0.60391119  1
  H  H217  1  0.69288577  0.41674755  0.66764437  1
  H  H218  1  0.66716947  0.40203497  0.66595482  1
  H  H219  1  0.66514478  0.43232924  0.64835998  1
  H  H220  1  0.69081126  0.44724496  0.64678471  1
  H  H221  1  0.82386670  0.38821154  0.24829705  1
  H  H222  1  0.74307366  0.32996655  0.43021438  1
  H  H223  1  0.80559652  0.34840362  0.28517303  1
  H  H224  1  0.79128451  0.35386711  0.25679201  1
  H  H225  1  0.81194271  0.37825554  0.32186169  1
  H  H226  1  0.79810794  0.38393306  0.29292275  1
  H  H227  1  0.76870186  0.34931148  0.30528066  1
  H  H228  1  0.78272226  0.34423811  0.33451739  1
  H  H229  1  0.76312056  0.36809591  0.41954811  1
  H  H230  1  0.74248571  0.36489315  0.39631771  1
  H  H231  1  0.74511669  0.34197113  0.35514779  1
  H  H232  1  0.76089325  0.33859384  0.38278779  1
  H  H233  1  0.78772623  0.37402514  0.37089979  1
  H  H234  1  0.77249645  0.37783885  0.34236882  1
  H  H235  1  0.00694511  0.16348817  0.97735596  1
  H  H236  1  0.00472188  0.19416346  0.97439542  1
  H  H237  1  0.94813251  0.16239963  0.02486397  1
  H  H238  1  0.95134553  0.13239950  0.03093054  1
  H  H239  1  0.92982323  0.19735423  0.03642451  1
  H  H240  1  0.92439704  0.22612061  0.03585239  1
  H  H241  1  0.98044707  0.26332494  0.98623761  1
  H  H242  1  0.98651575  0.23509506  0.98897493  1
  H  H243  1  0.20636302  0.11644708  0.01142490  1
  H  H244  1  0.24109205  0.12650973  0.01059648  1
  H  H245  1  0.22507115  0.06426977  0.99337577  1
  H  H246  1  0.19065763  0.05479416  0.99027009  1
  H  H247  1  0.27441676  0.06370599  0.99505978  1
  H  H248  1  0.30928833  0.07527110  0.99834497  1
  H  H249  1  0.32190278  0.13684225  0.01029193  1
  H  H250  1  0.28718841  0.12519781  0.00822391  1
  H  H251  1  0.89510334  0.87825592  0.01237415  1
  H  H252  1  0.86431770  0.84619133  0.01017335  1
  H  H253  1  0.89607194  0.81421071  0.00270952  1
  H  H254  1  0.92672805  0.84645587  0.00074620  1
  H  H255  1  0.86120089  0.75971471  0.00113119  1
  H  H256  1  0.83243418  0.72577002  0.00014910  1
  H  H257  1  0.79505049  0.75144389  0.00468314  1
  H  H258  1  0.82367804  0.78533441  0.00535278  1
  C  C259  1  0.93223010  0.88461365  0.00563183  1
  C  C260  1  0.93775503  0.89852185  0.03137052  1
  C  C261  1  0.95458457  0.91895857  0.03024951  1
  C  C262  1  0.96051623  0.93078685  0.06072391  1
  C  C263  1  0.97589725  0.95065184  0.06056367  1
  C  C264  1  0.98592988  0.95950782  0.02949041  1
  C  C265  1  0.98088358  0.94807051  0.99908296  1
  C  C266  1  0.96539837  0.92820619  0.99934567  1
  C  C267  1  0.00512945  0.99228922  0.05681716  1
  C  C268  1  0.02036633  0.01328299  0.04520814  1
  C  C269  1  0.04027818  0.01898989  0.04652083  1
  C  C270  1  0.05431523  0.03798245  0.03257552  1
  C  C271  1  0.04871218  0.05100256  0.01673897  1
  C  C272  1  0.02871897  0.04491233  0.01511355  1
  C  C273  1  0.01448376  0.02632713  0.03026783  1
  C  C274  1  0.99310290  0.01945460  0.03105548  1
  C  C275  1  0.04659506  0.00580128  0.06450060  1
  C  C276  1  0.06467680  0.07071285  0.00194288  1
  C  C277  1  0.07558936  0.04451470  0.03313802  1
  C  C278  1  0.10125314  0.04935774  0.99416284  1
  C  C279  1  0.11390243  0.05562860  0.02240183  1
  C  C280  1  0.13352806  0.06227925  0.01705564  1
  C  C281  1  0.14124686  0.06320459  0.98334229  1
  C  C282  1  0.12799251  0.05641025  0.95530562  1
  C  C283  1  0.10825905  0.04943497  0.96061403  1
  C  C284  1  0.16181427  0.07023785  0.97824814  1
  C  C285  1  0.17541708  0.07993028  0.00322341  1
  C  C286  1  0.02281443  0.05861456  -0.00253045  1
  C  C287  1  0.01596686  0.08485775  0.01340784  1
  C  C288  1  0.01045040  0.08593633  0.97934915  1
  C  C289  1  0.00175218  0.09736049  0.97201825  1
  C  C290  1  0.99854213  0.10837931  0.99807127  1
  C  C291  1  0.00481506  0.10744001  0.03215393  1
  C  C292  1  0.01353768  0.09601982  0.03961255  1
  C  C293  1  0.99013133  0.12088466  0.98945797  1
  C  C294  1  0.98260611  0.12842785  0.01307898  1
  C  C295  1  0.83606178  0.37238443  0.77618842  1
  C  C296  1  0.82459119  0.35657277  0.79855292  1
  C  C297  1  0.83174281  0.35227442  0.83027553  1
  C  C298  1  0.81902130  0.33575553  0.85214701  1
  C  C299  1  0.82530053  0.33098764  0.88258761  1
  C  C300  1  0.84473001  0.34285080  0.89284774  1
  C  C301  1  0.85770719  0.35914795  0.87171871  1
  C  C302  1  0.85138733  0.36386154  0.84123860  1
  C  C303  1  0.83941281  0.32405703  0.94751300  1
  C  C304  1  0.85129965  0.32426499  0.97830927  1
  C  C305  1  0.86144713  0.31349990  0.97632467  1
  C  C306  1  0.87306973  0.31422286  0.00462109  1
  C  C307  1  0.87454699  0.32541597  0.03481064  1
  C  C308  1  0.86453333  0.33632211  0.03642277  1
  C  C309  1  0.85255356  0.33544471  0.00852868  1
  C  C310  1  0.84073469  0.34577563  0.00970552  1
  C  C311  1  0.85876107  0.30021670  0.94580722  1
  C  C312  1  0.88718451  0.32526907  0.06362967  1
  C  C313  1  0.88389370  0.30278020  0.00342446  1
  C  C314  1  0.91603625  0.30772977  0.99622421  1
  C  C315  1  0.90803135  0.28693268  1.00062431  1
  C  C316  1  0.92000635  0.27856725  0.00130895  1
  C  C317  1  0.94050091  0.29049342  0.99709003  1
  C  C318  1  0.94823735  0.31160924  0.99175843  1
  C  C319  1  0.93623666  0.32002994  0.99117918  1
  C  C320  1  0.95226658  0.28079438  0.99846513  1
  C  C321  1  0.94345618  0.26036870  0.00363611  1
  C  C322  1  0.86738840  0.34928926  0.06787338  1
  C  C323  1  0.85396183  0.34685341  0.12554706  1
  C  C324  1  0.86708768  0.36734643  0.13164549  1
  C  C325  1  0.86433842  0.37673252  0.16017235  1
  C  C326  1  0.84838008  0.36612194  0.18359171  1
  C  C327  1  0.83614588  0.34508991  0.17799305  1
  C  C328  1  0.83926146  0.33554529  0.15005306  1
  C  C329  1  0.84441423  0.37632328  0.21121270  1
  C  C330  1  0.83032847  0.36615659  0.23650763  1
  C  C331  1  0.55106868  0.21856258  0.23460737  1
  C  C332  1  0.55093041  0.20407312  0.21342185  1
  C  C333  1  0.53967734  0.19790104  0.18189071  1
  C  C334  1  0.53698574  0.18124583  0.16167826  1
  C  C335  1  0.52645740  0.17608793  0.13096368  1
  C  C336  1  0.51833259  0.18757319  0.11915399  1
  C  C337  1  0.52076618  0.20406706  0.13861548  1
  C  C338  1  0.53179088  0.20954535  0.16875044  1
  C  C339  1  0.50608196  0.16857180  0.06501145  1
  C  C340  1  0.49463123  0.16889710  0.03397658  1
  C  C341  1  0.47402413  0.15805325  0.03610486  1
  C  C342  1  0.46325727  0.15856342  0.00741861  1
  C  C343  1  0.47273273  0.17042378  0.97740872  1
  C  C344  1  0.49335826  0.18160356  0.97582004  1
  C  C345  1  0.50436486  0.18048534  0.00373995  1
  C  C346  1  0.52624968  0.19112055  0.00277386  1
  C  C347  1  0.46356858  0.14506989  0.06731492  1
  C  C348  1  0.46000033  0.17075195  0.94894063  1
  C  C349  1  0.44133229  0.14704021  0.00883521  1
  C  C350  1  0.41482099  0.15327086  0.01684307  1
  C  C351  1  0.40159307  0.13270770  0.01212277  1
  C  C352  1  0.38172292  0.12578439  0.01106387  1
  C  C353  1  0.37437974  0.13912817  0.01514503  1
  C  C354  1  0.38814877  0.15972800  0.02130634  1
  C  C355  1  0.40803127  0.16671861  0.02226706  1
  C  C356  1  0.35376232  0.13253709  0.01350985  1
  C  C357  1  0.33916091  0.11321581  0.00749547  1
  C  C358  1  0.50324493  0.19499315  0.94433359  1
  C  C359  1  0.51432865  0.19287027  0.88630691  1
  C  C360  1  0.52130201  0.21338420  0.87932486  1
  C  C361  1  0.53249666  0.22244833  0.84955515  1
  C  C362  1  0.53699034  0.21146862  0.82517780  1
  C  C363  1  0.52886669  0.19050398  0.83218056  1
  C  C364  1  0.51757210  0.18140323  0.86187164  1
  C  C365  1  0.54940504  0.22125294  0.79505627  1
  C  C366  1  0.55420289  0.21085568  0.77164985  1
  C  C367  1  0.68163339  0.49037540  0.77976194  1
  C  C368  1  0.69422347  0.49135064  0.80506420  1
  C  C369  1  0.69932487  0.50421501  0.83505005  1
  C  C370  1  0.71515513  0.50725221  0.85607900  1
  C  C371  1  0.72066969  0.51964223  0.88492454  1
  C  C372  1  0.71017315  0.52913711  0.89409014  1
  C  C373  1  0.69480508  0.52691769  0.87339589  1
  C  C374  1  0.68940108  0.51462891  0.84434418  1
  C  C375  1  0.72905217  0.54179996  0.94628606  1
  C  C376  1  0.72968708  0.55415388  0.97701436  1
  C  C377  1  0.74061591  0.57547359  0.97421123  1
  C  C378  1  0.74024506  0.58712175  0.00224106  1
  C  C379  1  0.72884659  0.57762427  0.03241770  1
  C  C380  1  0.71735865  0.55629798  0.03405781  1
  C  C381  1  0.71804113  0.54433654  0.00681849  1
  C  C382  1  0.70684137  0.52160052  0.00770627  1
  C  C383  1  0.75344712  0.58543974  0.94291733  1
  C  C384  1  0.72939783  0.59106196  0.06125184  1
  C  C385  1  0.75222738  0.60982644  1.00076097  1
  C  C386  1  0.74914540  0.63920057  0.99352968  1
  C  C387  1  0.76930257  0.65116888  0.99734038  1
  C  C388  1  0.77810600  0.67211870  0.99667310  1
  C  C389  1  0.76708793  0.68195114  0.99465458  1
  C  C390  1  0.74672653  0.66942480  0.98918498  1
  C  C391  1  0.73795657  0.64843833  0.98828104  1
  C  C392  1  0.77719536  0.70390465  0.99687446  1
  C  C393  1  0.79583409  0.71429741  0.00904623  1
  C  C394  1  0.70460034  0.54658075  0.06559513  1
  C  C395  1  0.70632746  0.53463896  0.12225355  1
  C  C396  1  0.68663318  0.52849275  0.12792416  1
  C  C397  1  0.67680684  0.51635451  0.15642132  1
  C  C398  1  0.68630041  0.50995171  0.18004605  1
  C  C399  1  0.70642457  0.51704558  0.17433419  1
  C  C400  1  0.71643727  0.52977928  0.14643546  1
  C  C401  1  0.67608538  0.49607189  0.20808701  1
  C  C402  1  0.68597383  0.49253406  0.23395129  1
  C  C403  1  0.74636633  0.40089234  0.53736714  1
  C  C404  1  0.72990158  0.38869202  0.51748550  1
  C  C405  1  0.68765896  0.38205598  0.55473612  1
  C  C406  1  0.67587267  0.38298912  0.58076161  1
  C  C407  1  0.72476031  0.39510554  0.48575656  1
  C  C408  1  0.73570040  0.41400055  0.46945486  1
  C  C409  1  0.69983266  0.38549932  0.44466428  1
  C  C410  1  0.70699277  0.40563074  0.43608024  1
  C  C411  1  0.65546849  0.37358541  0.57580034  1
  C  C412  1  0.72673276  0.41944140  0.44435355  1
  C  C413  1  0.65400901  0.35026089  0.48913105  1
  C  C414  1  0.64756986  0.36325294  0.54542980  1
  C  C415  1  0.65999274  0.36184810  0.52110405  1
  C  C416  1  0.67087646  0.33325119  0.56157517  1
  C  C417  1  0.66044836  0.31531511  0.58058012  1
  C  C418  1  0.65742039  0.29695426  0.56607161  1
  C  C419  1  0.66611614  0.29759946  0.53430983  1
  C  C420  1  0.67746713  0.31626720  0.51749219  1
  C  C421  1  0.68964885  0.32029020  0.48664629  1
  C  C422  1  0.69112127  0.30584557  0.46687276  1
  C  C423  1  0.72002748  0.33362763  0.44011634  1
  C  C424  1  0.71447150  0.34696663  0.45326985  1
  C  C425  1  0.70648820  0.31255315  0.44339853  1
  C  C426  1  0.66632618  0.33846213  0.44504999  1
  C  C427  1  0.64803148  0.32776617  0.43011338  1
  C  C428  1  0.63266612  0.33031709  0.44339942  1
  C  C429  1  0.63567175  0.34131199  0.47362528  1
  C  C430  1  0.71898924  0.36186120  0.55795255  1
  C  C431  1  0.73480089  0.37376451  0.57967532  1
  C  C432  1  0.74868794  0.39374193  0.56903127  1
  C  C433  1  0.81280324  0.36357718  0.72603643  1
  C  C434  1  0.80472510  0.37589624  0.70891735  1
  C  C435  1  0.78707083  0.36337396  0.68590490  1
  C  C436  1  0.75332043  0.37678642  0.63286456  1
  C  C437  1  0.76024333  0.36337057  0.64954044  1
  C  C438  1  0.77866207  0.37585708  0.67073344  1
  C  C439  1  0.57045878  0.23533848  0.28754282  1
  C  C440  1  0.58937641  0.25502913  0.29480334  1
  C  C441  1  0.59350388  0.26185237  0.33266714  1
  C  C442  1  0.63570922  0.31170115  0.37146442  1
  C  C443  1  0.61754509  0.29062375  0.37105513  1
  C  C444  1  0.61171855  0.28284875  0.33427280  1
  C  C445  1  0.57115217  0.23390608  0.71970888  1
  C  C446  1  0.59285767  0.24799713  0.71222047  1
  C  C447  1  0.59762696  0.26067633  0.67894934  1
  C  C448  1  0.64754799  0.30163746  0.64003538  1
  C  C449  1  0.62540882  0.28826971  0.64293129  1
  C  C450  1  0.61964133  0.27445213  0.67462755  1
  C  C451  1  0.69077593  0.47300623  0.27739778  1
  C  C452  1  0.68050810  0.45225480  0.29441729  1
  C  C453  1  0.69346917  0.45020616  0.32105364  1
  C  C454  1  0.68716187  0.40800346  0.38606959  1
  C  C455  1  0.69651438  0.42809920  0.36585653  1
  C  C456  1  0.68386284  0.42913525  0.33735342  1
  C  C457  1  0.68068022  0.46323058  0.74350914  1
  C  C458  1  0.67828820  0.45766399  0.70531213  1
  C  C459  1  0.67890469  0.43845205  0.69878896  1
  C  C460  1  0.68152900  0.41154870  0.61600375  1
  C  C461  1  0.68001285  0.41532460  0.65423606  1
  C  C462  1  0.67856915  0.43409619  0.66012837  1
  C  C463  1  0.80381438  0.36080358  0.27458280  1
  C  C464  1  0.79954338  0.37140225  0.30382861  1
  C  C465  1  0.78093821  0.35659236  0.32363609  1
  C  C466  1  0.75046351  0.35725640  0.40436213  1
  C  C467  1  0.75745766  0.35002267  0.37307988  1
  C  C468  1  0.77531781  0.36616019  0.35304886  1
  C  C469  1  0.99415760  0.16323879  0.98851975  1
  C  C470  1  0.99287745  0.18056648  0.98650674  1
  C  C471  1  0.97654868  0.18095591  0.00041653  1
  C  C472  1  0.96147011  0.16309029  0.01556668  1
  C  C473  1  0.96328233  0.14607785  0.01908457  1
  C  C474  1  0.97982471  0.14561569  0.00633837  1
  C  C475  1  0.95826609  0.21371428  0.01157981  1
  C  C476  1  0.94096328  0.21176058  0.02535496  1
  C  C477  1  0.93775245  0.22786044  0.02437123  1
  C  C478  1  0.95105690  0.24658992  0.00837921  1
  C  C479  1  0.96908356  0.24887990  0.99690467  1
  C  C480  1  0.97257936  0.23281816  0.99849008  1
  C  C481  1  0.21056514  0.10507084  0.00736190  1
  C  C482  1  0.23002125  0.11073668  0.00689339  1
  C  C483  1  0.23554197  0.09604511  0.00231782  1
  C  C484  1  0.22106949  0.07586506  0.99652722  1
  C  C485  1  0.20163931  0.07051540  0.99497484  1
  C  C486  1  0.19578817  0.08492506  0.00111092  1
  C  C487  1  0.27818624  0.09363955  0.00159287  1
  C  C488  1  0.28481367  0.07970757  0.99867683  1
  C  C489  1  0.30446649  0.08626413  1.00053258  1
  C  C490  1  0.31865600  0.10692406  0.00534584  1
  C  C491  1  0.31168257  0.12071269  0.00755954  1
  C  C492  1  0.29199567  0.11417335  0.00601339  1
  C  C493  1  0.89546522  0.86426057  0.01002143  1
  C  C494  1  0.87798843  0.84611124  0.00894040  1
  C  C495  1  0.87761273  0.82752023  0.00632200  1
  C  C496  1  0.89558975  0.82817518  0.00394865  1
  C  C497  1  0.91303804  0.84649866  0.00289776  1
  C  C498  1  0.91369081  0.86521633  0.00622943  1
  C  C499  1  0.84481675  0.77526158  0.00363975  1
  C  C500  1  0.84673324  0.75801041  0.00198737  1
  C  C501  1  0.83047283  0.73883377  0.00200760  1
  C  C502  1  0.81128954  0.73548790  0.00401814  1
  C  C503  1  0.80947737  0.75298989  0.00403595  1
  C  C504  1  0.82579905  0.77234926  0.00427637  1
  N  N505  1  0.71633255  0.36976149  0.52860683  1
  N  N506  1  0.70771542  0.38074108  0.47137357  1
  N  N507  1  0.67891122  0.33338556  0.53068012  1
  N  N508  1  0.69991552  0.34021032  0.47707147  1
  N  N509  1  0.66885279  0.34882710  0.47438945  1
  N  N510  1  0.67966420  0.37080294  0.52640143  1
  N  N511  1  0.83042796  0.37663192  0.74554903  1
  N  N512  1  0.73686261  0.36575736  0.61010769  1
  N  N513  1  0.56758007  0.23407391  0.24967731  1
  N  N514  1  0.64607017  0.31480577  0.40389699  1
  N  N515  1  0.56865132  0.21939591  0.74703088  1
  N  N516  1  0.65334082  0.31650023  0.61239324  1
  N  N517  1  0.67862160  0.47475574  0.25121427  1
  N  N518  1  0.69487015  0.41176432  0.42122528  1
  N  N519  1  0.68011699  0.48175624  0.74826999  1
  N  N520  1  0.68414973  0.39403481  0.61111084  1
  N  N521  1  0.82172967  0.37440018  0.25550531  1
  N  N522  1  0.73820398  0.33982544  0.42634940  1
  N  N523  1  0.97557902  0.19881189  -0.00135254  1
  N  N524  1  0.96010883  0.19645006  0.01268928  1
  N  N525  1  0.25533245  0.10196196  0.00345251  1
  N  N526  1  0.25823365  0.08725685  -0.00000415  1
  N  N527  1  0.85966312  0.80911154  0.00607373  1
  N  N528  1  0.86213425  0.79407588  0.00412686  1
  O  O529  1  0.00110283  0.97888575  0.02723188  1
  O  O530  1  0.02427844  0.07366710  0.02223513  1
  O  O531  1  0.08195329  0.04301353  0.99808941  1
  O  O532  1  0.85229627  0.33927540  0.92199133  1
  O  O533  1  0.85517238  0.33700345  0.09703423  1
  O  O534  1  0.90473130  0.31646163  0.99672731  1
  O  O535  1  0.50733555  0.18348657  0.08997907  1
  O  O536  1  0.50376167  0.18300647  0.91536941  1
  O  O537  1  0.43447973  0.16109281  0.01642314  1
  O  O538  1  0.71446041  0.54107078  0.92249355  1
  O  O539  1  0.71635513  0.54567642  0.09374415  1
  O  O540  1  0.73987890  0.61860866  0.99443000  1
