# generated using pymatgen
data_SiH240C333O16
_symmetry_space_group_name_H-M   'P 1'
_cell_length_a   46.85266679
_cell_length_b   44.98401189
_cell_length_c   58.68124496
_cell_angle_alpha   89.32093048
_cell_angle_beta   91.41112683
_cell_angle_gamma   89.90673682
_symmetry_Int_Tables_number   1
_chemical_formula_structural   SiH240C333O16
_chemical_formula_sum   'Si1 H240 C333 O16'
_cell_volume   123631.39951577
_cell_formula_units_Z   1
loop_
 _symmetry_equiv_pos_site_id
 _symmetry_equiv_pos_as_xyz
  1  'x, y, z'
loop_
 _atom_site_type_symbol
 _atom_site_label
 _atom_site_symmetry_multiplicity
 _atom_site_fract_x
 _atom_site_fract_y
 _atom_site_fract_z
 _atom_site_occupancy
  Si  Si0  1  0.53161427  0.53329526  0.51234442  1
  H  H1  1  0.01199054  0.07266219  0.02471907  1
  H  H2  1  0.98459799  0.06097004  0.00500315  1
  H  H3  1  0.02923807  -0.00103665  0.02813188  1
  H  H4  1  0.05901569  0.00345367  0.01028187  1
  H  H5  1  0.06209055  0.04596865  0.98408435  1
  H  H6  1  0.04974328  0.07651733  0.00016241  1
  H  H7  1  0.99391916  0.02550224  0.97529902  1
  H  H8  1  -0.00229019  0.99591953  0.99576689  1
  H  H9  1  0.63670113  0.54835680  0.55882517  1
  H  H10  1  0.53071507  0.63153035  0.44949862  1
  H  H11  1  0.49873785  0.55062299  0.47762355  1
  H  H12  1  0.52205754  0.44506790  0.44305633  1
  H  H13  1  0.43164382  0.53559565  0.56670814  1
  H  H14  1  0.57801710  0.58800708  0.50424135  1
  H  H15  1  0.48508053  0.47745844  0.50465555  1
  H  H16  1  0.56251195  0.51612573  0.47800264  1
  H  H17  1  0.51364265  0.50238216  0.54865534  1
  H  H18  1  0.48131924  0.58457136  0.51836686  1
  H  H19  1  0.58801141  0.48747220  0.51759453  1
  H  H20  1  0.54647575  0.55931068  0.55234368  1
  H  H21  1  0.88221935  0.44127453  0.70065221  1
  H  H22  1  0.87721123  0.37686472  0.68307921  1
  H  H23  1  0.91643048  0.34500032  0.68794684  1
  H  H24  1  0.96452899  0.33243408  0.70222709  1
  H  H25  1  0.97096845  0.41800796  0.73410231  1
  H  H26  1  0.92278032  0.43104032  0.71960181  1
  H  H27  1  0.01227938  0.33351969  0.70865357  1
  H  H28  1  0.99356689  0.32240467  0.73317964  1
  H  H29  1  0.01278747  0.31435495  0.79213573  1
  H  H30  1  0.00410483  0.29630347  0.76640145  1
  H  H31  1  0.99334027  0.33364920  0.77038179  1
  H  H32  1  0.04173478  0.35957152  0.69725851  1
  H  H33  1  0.07024138  0.33416950  0.69411318  1
  H  H34  1  0.07707795  0.37193844  0.70024162  1
  H  H35  1  0.11682851  0.33577236  0.79621166  1
  H  H36  1  0.12597269  0.36457945  0.77682168  1
  H  H37  1  0.13423390  0.32721821  0.77089522  1
  H  H38  1  0.13390489  0.34455487  0.73678803  1
  H  H39  1  0.11309793  0.35734889  0.71290289  1
  H  H40  1  0.15368271  0.36505075  0.70873539  1
  H  H41  1  0.19732952  0.38799126  0.69672518  1
  H  H42  1  0.18354731  0.46194271  0.74199078  1
  H  H43  1  0.13644372  0.44026266  0.75172663  1
  H  H44  1  0.23111168  0.45638856  0.72073935  1
  H  H45  1  0.23573812  0.39339261  0.69976355  1
  H  H46  1  0.07948711  0.33951674  0.81051059  1
  H  H47  1  0.04439672  0.32528286  0.80965257  1
  H  H48  1  0.06679920  0.32383212  0.84433103  1
  H  H49  1  0.05754398  0.30027769  0.88138560  1
  H  H50  1  0.07239420  0.21381351  0.85196447  1
  H  H51  1  0.08186499  0.23786917  0.81526267  1
  H  H52  1  0.05245465  0.25619349  0.90567977  1
  H  H53  1  0.07017636  0.19759567  0.88259119  1
  H  H54  1  0.65570258  0.86898099  0.30897180  1
  H  H55  1  0.69488289  0.88843124  0.34918844  1
  H  H56  1  0.72689871  0.92697808  0.34394150  1
  H  H57  1  0.74619714  0.96949113  0.32304680  1
  H  H58  1  0.68511988  0.95470400  0.26830998  1
  H  H59  1  0.66561637  0.91182913  0.28914811  1
  H  H60  1  0.76754618  -0.00278547  0.29413576  1
  H  H61  1  0.74010369  0.01630195  0.30811348  1
  H  H62  1  0.70020339  0.08177042  0.29715120  1
  H  H63  1  0.72704103  0.06399131  0.31382817  1
  H  H64  1  0.70095657  0.04255248  0.29916122  1
  H  H65  1  0.78286086  0.98822460  0.26410377  1
  H  H66  1  0.81137720  0.01399827  0.26374242  1
  H  H67  1  0.79496680  0.00211530  0.23791687  1
  H  H68  1  0.74216457  0.12597909  0.22789892  1
  H  H69  1  0.75307768  0.09911195  0.20802562  1
  H  H70  1  0.77849158  0.11708304  0.22575554  1
  H  H71  1  0.80325479  0.07800365  0.21964026  1
  H  H72  1  0.80765209  0.03899526  0.22346986  1
  H  H73  1  0.83230616  0.05720301  0.19780079  1
  H  H74  1  0.85881697  0.05664288  0.16310523  1
  H  H75  1  0.78004948  0.04831610  0.12337003  1
  H  H76  1  0.75337846  0.04567966  0.15931529  1
  H  H77  1  0.82736018  0.05169927  0.10340932  1
  H  H78  1  0.87666525  0.07048665  0.13629421  1
  H  H79  1  0.70804741  0.11776269  0.24480640  1
  H  H80  1  0.69618864  0.10703332  0.27200326  1
  H  H81  1  0.67877989  0.14830183  0.25687667  1
  H  H82  1  0.64872499  0.18712424  0.27327883  1
  H  H83  1  0.71970901  0.21319103  0.31745896  1
  H  H84  1  0.74918831  0.17392167  0.30125236  1
  H  H85  1  0.64187214  0.22742083  0.29915814  1
  H  H86  1  0.69644942  0.24614467  0.32654717  1
  H  H87  1  0.83471244  0.69400219  0.69166323  1
  H  H88  1  0.83044349  0.64182833  0.72612711  1
  H  H89  1  0.87017337  0.63702401  0.75278486  1
  H  H90  1  0.91909098  0.64977791  0.76530496  1
  H  H91  1  0.92560451  0.71103431  0.70833427  1
  H  H92  1  0.87786026  0.69584417  0.69421233  1
  H  H93  1  0.96605659  0.65493355  0.76498544  1
  H  H94  1  0.94790152  0.68394377  0.77875807  1
  H  H95  1  0.96401632  0.75602480  0.79651044  1
  H  H96  1  0.95636184  0.71896891  0.80393505  1
  H  H97  1  0.94520047  0.73340512  0.77695600  1
  H  H98  1  0.99353063  0.64926074  0.74019320  1
  H  H99  1  0.02165233  0.63766167  0.75890444  1
  H  H100  1  0.02904111  0.65402950  0.73202991  1
  H  H101  1  0.06658429  0.76822141  0.77954964  1
  H  H102  1  0.07654451  0.75085016  0.75385650  1
  H  H103  1  0.08527528  0.73426248  0.78059011  1
  H  H104  1  0.08619813  0.69305269  0.76077647  1
  H  H105  1  0.06612450  0.66700462  0.74447443  1
  H  H106  1  0.11331285  0.66219917  0.73931100  1
  H  H107  1  0.15765176  0.65210649  0.71998274  1
  H  H108  1  0.13809359  0.72233524  0.67132770  1
  H  H109  1  0.09322053  0.73237279  0.69095778  1
  H  H110  1  0.17955115  0.69442497  0.66531893  1
  H  H111  1  0.20136020  0.65169641  0.70344144  1
  H  H112  1  0.02966055  0.78620467  0.78246301  1
  H  H113  1  0.99444311  0.78064263  0.79151966  1
  H  H114  1  0.01377803  0.82258259  0.80069608  1
  H  H115  1  0.00080228  0.86329300  0.82598011  1
  H  H116  1  0.01835995  0.80630320  0.88467992  1
  H  H117  1  0.02968472  0.76517682  0.85908390  1
  H  H118  1  0.99362392  0.88314694  0.86244783  1
  H  H119  1  0.00740738  0.84228894  0.90427703  1
  H  H120  1  0.39201521  0.82065617  0.29116745  1
  H  H121  1  0.34605345  0.82189110  0.32765415  1
  H  H122  1  0.31210519  0.86210675  0.32387177  1
  H  H123  1  0.30005921  0.91327817  0.31156963  1
  H  H124  1  0.38088712  0.92039512  0.27791340  1
  H  H125  1  0.39407833  0.86977919  0.29197320  1
  H  H126  1  0.30058032  0.96115366  0.30634711  1
  H  H127  1  0.28991476  0.94166929  0.28151128  1
  H  H128  1  0.28279092  0.95909604  0.22307620  1
  H  H129  1  0.26644024  0.95033974  0.24896819  1
  H  H130  1  0.30231615  0.93979448  0.24472730  1
  H  H131  1  0.32963606  0.98993561  0.31668577  1
  H  H132  1  0.30464865  0.01870864  0.32096556  1
  H  H133  1  0.34069097  0.02709343  0.31501933  1
  H  H134  1  0.30542556  0.06687529  0.21838460  1
  H  H135  1  0.33356280  0.07737240  0.23756278  1
  H  H136  1  0.29771823  0.08572957  0.24362442  1
  H  H137  1  0.31316877  0.08633314  0.27912840  1
  H  H138  1  0.32804605  0.06524175  0.30232992  1
  H  H139  1  0.33270153  0.11174906  0.30751737  1
  H  H140  1  0.35230476  0.15886548  0.31979807  1
  H  H141  1  0.42613678  0.14471471  0.27839954  1
  H  H142  1  0.40567669  0.09686328  0.26583990  1
  H  H143  1  0.42406923  0.19018791  0.30055545  1
  H  H144  1  0.37058114  0.19718062  0.33010225  1
  H  H145  1  0.30805461  0.02770766  0.20391544  1
  H  H146  1  0.29508814  0.99096015  0.20572338  1
  H  H147  1  0.29191057  0.01190451  0.17072811  1
  H  H148  1  0.26818510  0.00147410  0.13391071  1
  H  H149  1  0.18683306  0.02316756  0.16278793  1
  H  H150  1  0.21029769  0.02828842  0.20076292  1
  H  H151  1  0.22179752  1.00344266  0.10888089  1
  H  H152  1  0.17176735  -0.01030596  0.14014389  1
  H  H153  1  0.70456956  0.52089870  0.57148758  1
  H  H154  1  0.66611818  0.43507915  0.58000363  1
  H  H155  1  0.62585948  0.45039527  0.55501911  1
  H  H156  1  0.67011660  0.53143071  0.54002211  1
  H  H157  1  0.78438984  0.39908366  0.65701542  1
  H  H158  1  0.82627997  0.38596644  0.68071054  1
  H  H159  1  0.85593593  0.47628102  0.67570669  1
  H  H160  1  0.81438554  0.48908986  0.65137652  1
  H  H161  1  0.59923336  0.45975944  0.39865169  1
  H  H162  1  0.58387738  0.39052554  0.44873535  1
  H  H163  1  0.57344920  0.42964857  0.47739099  1
  H  H164  1  0.58165554  0.49779415  0.42558125  1
  H  H165  1  0.62107402  0.27897827  0.38172856  1
  H  H166  1  0.64149384  0.23853313  0.35870895  1
  H  H167  1  0.66679821  0.30323366  0.30799089  1
  H  H168  1  0.64571175  0.34348362  0.33080139  1
  H  H169  1  0.41372584  0.61428735  0.60297527  1
  H  H170  1  0.35693293  0.58383875  0.54976969  1
  H  H171  1  0.39769650  0.57091688  0.52671218  1
  H  H172  1  0.45467263  0.60396112  0.57928180  1
  H  H173  1  0.24056034  0.62376971  0.61991431  1
  H  H174  1  0.19976630  0.63980309  0.64184489  1
  H  H175  1  0.25683289  0.66366506  0.69723895  1
  H  H176  1  0.29766652  0.64960918  0.67453617  1
  H  H177  1  0.59085510  0.65705047  0.41095698  1
  H  H178  1  0.59734707  0.70894550  0.47185540  1
  H  H179  1  0.58276149  0.66603239  0.49475166  1
  H  H180  1  0.57580501  0.61398693  0.43380397  1
  H  H181  1  0.64113347  0.82855242  0.39747298  1
  H  H182  1  0.65789256  0.86929968  0.37337486  1
  H  H183  1  0.64514025  0.81479898  0.31408426  1
  H  H184  1  0.62906027  0.77384881  0.33841186  1
  H  H185  1  0.46294944  0.41567476  0.40864006  1
  H  H186  1  0.46153352  0.36082717  0.46896845  1
  H  H187  1  0.47763445  0.40274439  0.49213645  1
  H  H188  1  0.47639299  0.45856342  0.43200654  1
  H  H189  1  0.41677087  0.24580069  0.39248296  1
  H  H190  1  0.40084021  0.20458229  0.36835225  1
  H  H191  1  0.41047253  0.25969561  0.30860521  1
  H  H192  1  0.42447243  0.30137129  0.33284380  1
  H  H193  1  0.44044580  0.50117738  0.62709613  1
  H  H194  1  0.39641325  0.46263468  0.56902280  1
  H  H195  1  0.44060350  0.46734397  0.54638217  1
  H  H196  1  0.48394078  0.50833256  0.60398665  1
  H  H197  1  0.28676320  0.42835334  0.63433692  1
  H  H198  1  0.24658010  0.40997895  0.65764803  1
  H  H199  1  0.28663077  0.44774249  0.71803558  1
  H  H200  1  0.32784278  0.46380009  0.69500901  1
  H  H201  1  0.46208532  0.67245900  0.44726490  1
  H  H202  1  0.47253219  0.60883033  0.39337129  1
  H  H203  1  0.48919005  0.57083759  0.42198234  1
  H  H204  1  0.47313909  0.63255472  0.47616088  1
  H  H205  1  0.41735127  0.72062326  0.32023397  1
  H  H206  1  0.39947979  0.76118741  0.29455461  1
  H  H207  1  0.39239724  0.81878665  0.35279924  1
  H  H208  1  0.41304644  0.77912179  0.37793112  1
  H  H209  1  0.64415326  0.55295656  0.61970960  1
  H  H210  1  0.64034647  0.63460028  0.58024465  1
  H  H211  1  0.59625951  0.61694978  0.56016399  1
  H  H212  1  0.59714210  0.53791867  0.60279988  1
  H  H213  1  0.75381091  0.68259479  0.64502224  1
  H  H214  1  0.79518648  0.70217085  0.66726566  1
  H  H215  1  0.80251691  0.61793113  0.70364321  1
  H  H216  1  0.76064292  0.59912445  0.68192848  1
  H  H217  1  0.95323331  0.07893508  0.02342830  1
  H  H218  1  0.91023951  0.08905759  0.04521867  1
  H  H219  1  0.93864689  0.02516196  0.09677784  1
  H  H220  1  0.97958065  0.01268366  0.07342009  1
  H  H221  1  0.87893290  0.07826298  0.07614992  1
  H  H222  1  0.90359294  0.03407335  0.11260646  1
  H  H223  1  0.02836597  0.06622751  0.92686751  1
  H  H224  1  0.03657603  0.10941534  0.90120821  1
  H  H225  1  0.04608347  0.16604470  0.95993920  1
  H  H226  1  0.03828028  0.12301420  0.98514060  1
  H  H227  1  0.04003215  0.15824610  0.89434821  1
  H  H228  1  0.05002475  0.20484856  0.93189674  1
  H  H229  1  0.10303449  0.00847221  0.01778312  1
  H  H230  1  0.14662332  0.99440695  0.03915104  1
  H  H231  1  0.10713077  0.02129371  0.10187649  1
  H  H232  1  0.06457263  0.03681416  0.07995591  1
  H  H233  1  0.17621935  0.99488301  0.07597866  1
  H  H234  1  0.14201194  0.02139276  0.11555877  1
  H  H235  1  0.06887549  0.96060183  0.96963468  1
  H  H236  1  0.06252206  0.91282620  0.94926740  1
  H  H237  1  0.97803801  0.94135654  0.92664858  1
  H  H238  1  0.98401788  0.98756493  0.94810442  1
  H  H239  1  0.03457597  0.87946852  0.92823774  1
  H  H240  1  0.98070638  0.90472467  0.90308438  1
  C  C241  1  0.04282010  0.05740606  0.98992778  1
  C  C242  1  0.02418452  0.03534290  0.00341765  1
  C  C243  1  0.00917771  0.01372576  0.98678409  1
  C  C244  1  0.00192177  0.05323206  0.01658536  1
  C  C245  1  0.04272209  0.01562158  0.01963024  1
  C  C246  1  0.59177220  0.55409957  0.55845319  1
  C  C247  1  0.51141876  0.59305036  0.46392055  1
  C  C248  1  0.51471347  0.56811645  0.47782917  1
  C  C249  1  0.53814671  0.56713820  0.49300352  1
  C  C250  1  0.56005379  0.58935411  0.49215770  1
  C  C251  1  0.55841209  0.61204421  0.47516891  1
  C  C252  1  0.53347308  0.61349639  0.46185762  1
  C  C253  1  0.49952180  0.45849444  0.47263838  1
  C  C254  1  0.50105808  0.47817812  0.49150280  1
  C  C255  1  0.52334750  0.50012680  0.49284311  1
  C  C256  1  0.54581960  0.49937048  0.47768483  1
  C  C257  1  0.54650382  0.47630303  0.46220914  1
  C  C258  1  0.52194252  0.45980213  0.45761383  1
  C  C259  1  0.45404072  0.56438745  0.54407861  1
  C  C260  1  0.45065708  0.53842342  0.55670293  1
  C  C261  1  0.47145770  0.51618007  0.55795203  1
  C  C262  1  0.49680684  0.51888783  0.54634197  1
  C  C263  1  0.49903137  0.54219899  0.53064063  1
  C  C264  1  0.47825781  0.56587674  0.52997768  1
  C  C265  1  0.61665961  0.53967266  0.55206092  1
  C  C266  1  0.61544790  0.51224432  0.54147228  1
  C  C267  1  0.58946032  0.50613225  0.52920226  1
  C  C268  1  0.56561920  0.52604207  0.53085692  1
  C  C269  1  0.56567898  0.54718699  0.54814085  1
  C  C270  1  0.87307398  0.42245925  0.69143764  1
  C  C271  1  0.88688169  0.39570651  0.69188517  1
  C  C272  1  0.91529826  0.38928326  0.70189509  1
  C  C273  1  0.92811533  0.36129712  0.69809567  1
  C  C274  1  0.95531595  0.35389302  0.70648799  1
  C  C275  1  0.97074537  0.37412771  0.71976816  1
  C  C276  1  0.95880050  0.40202696  0.72395685  1
  C  C277  1  0.93156768  0.40938975  0.71541362  1
  C  C278  1  0.00932626  0.33840061  0.72680639  1
  C  C279  1  0.03733145  0.33693420  0.74004939  1
  C  C280  1  0.06255834  0.34560913  0.72914784  1
  C  C281  1  0.08827107  0.34589503  0.74215979  1
  C  C282  1  0.08944481  0.33873945  0.76568808  1
  C  C283  1  0.06403551  0.33017248  0.77634551  1
  C  C284  1  0.03815041  0.32836927  0.76346405  1
  C  C285  1  0.01088931  0.31774458  0.77367375  1
  C  C286  1  0.06286311  0.35322885  0.70411069  1
  C  C287  1  0.11777826  0.34166769  0.77810033  1
  C  C288  1  0.11470260  0.35740164  0.73159170  1
  C  C289  1  0.14311669  0.40065333  0.73200089  1
  C  C290  1  0.16015013  0.38601722  0.71641878  1
  C  C291  1  0.18573132  0.39846719  0.71035782  1
  C  C292  1  0.19566905  0.42488619  0.72073830  1
  C  C293  1  0.17709685  0.44046920  0.73517561  1
  C  C294  1  0.15081231  0.42852418  0.74057215  1
  C  C295  1  0.22379900  0.43453706  0.71516346  1
  C  C296  1  0.24009129  0.41711109  0.70179389  1
  C  C297  1  0.06526034  0.32366418  0.80161563  1
  C  C298  1  0.07292023  0.28203279  0.82700791  1
  C  C299  1  0.06713653  0.29965222  0.84586534  1
  C  C300  1  0.06266155  0.28633512  0.86695839  1
  C  C301  1  0.06428162  0.25508713  0.87018922  1
  C  C302  1  0.07126586  0.23797771  0.85083025  1
  C  C303  1  0.07620569  0.25135480  0.82981896  1
  C  C304  1  0.05874758  0.24134989  0.89208218  1
  C  C305  1  0.06104164  0.21120162  0.89594620  1
  C  C306  1  0.66442644  0.86940121  0.32640469  1
  C  C307  1  0.68390641  0.89055160  0.33262193  1
  C  C308  1  0.69436411  0.91554209  0.31878565  1
  C  C309  1  0.71722583  0.93298826  0.32744368  1
  C  C310  1  0.72819032  0.95731251  0.31562506  1
  C  C311  1  0.71644394  0.96554487  0.29436613  1
  C  C312  1  0.69410681  0.94856702  0.28504817  1
  C  C313  1  0.68320674  0.92418099  0.29697689  1
  C  C314  1  0.74730117  0.00933423  0.29125750  1
  C  C315  1  0.75075773  0.03538946  0.27501810  1
  C  C316  1  0.77019337  0.03382255  0.25695587  1
  C  C317  1  0.77165198  0.05762021  0.24102603  1
  C  C318  1  0.75399128  0.08292204  0.24290943  1
  C  C319  1  0.73440002  0.08382408  0.26077504  1
  C  C320  1  0.73337238  0.06094655  0.27746116  1
  C  C321  1  0.71445363  0.06247318  0.29773965  1
  C  C322  1  0.79067025  0.00828102  0.25554493  1
  C  C323  1  0.75686152  0.10742536  0.22542058  1
  C  C324  1  0.79166791  0.05677498  0.22143405  1
  C  C325  1  0.79089067  0.05222965  0.18082992  1
  C  C326  1  0.82051563  0.05552113  0.18162313  1
  C  C327  1  0.83560907  0.05601002  0.16159764  1
  C  C328  1  0.82158627  0.05449442  0.13998570  1
  C  C329  1  0.79148576  0.05051195  0.13967618  1
  C  C330  1  0.77642149  0.04915254  0.15978279  1
  C  C331  1  0.83838697  0.05553269  0.11972399  1
  C  C332  1  0.86737583  0.06024791  0.12096304  1
  C  C333  1  0.71542497  0.11056226  0.26198878  1
  C  C334  1  0.71524628  0.15759179  0.27931921  1
  C  C335  1  0.68736047  0.16185711  0.27068888  1
  C  C336  1  0.67071068  0.18420079  0.27945428  1
  C  C337  1  0.68163973  0.20337305  0.29644687  1
  C  C338  1  0.71038527  0.19928038  0.30415703  1
  C  C339  1  0.72713970  0.17699763  0.29527233  1
  C  C340  1  0.66387299  0.22622705  0.30569475  1
  C  C341  1  0.67388761  0.24600593  0.32115693  1
  C  C342  1  0.82740711  0.67249417  0.69793445  1
  C  C343  1  0.84122681  0.65848115  0.71579297  1
  C  C344  1  0.86967835  0.66625511  0.72314823  1
  C  C345  1  0.88229977  0.65320960  0.74301382  1
  C  C346  1  0.90969476  0.66062881  0.75019089  1
  C  C347  1  0.92497244  0.68166578  0.73765307  1
  C  C348  1  0.91325344  0.69470825  0.71779308  1
  C  C349  1  0.88613043  0.68667688  0.71031531  1
  C  C350  1  0.96347423  0.67925231  0.76550363  1
  C  C351  1  0.99113688  0.69544532  0.76891781  1
  C  C352  1  0.01564126  0.68509483  0.75781017  1
  C  C353  1  0.04085902  0.70228305  0.75858028  1
  C  C354  1  0.04094795  0.72983562  0.77013598  1
  C  C355  1  0.01567327  0.74056293  0.77994729  1
  C  C356  1  0.99049056  0.72339659  0.77967538  1
  C  C357  1  0.96287255  0.73350461  0.78972417  1
  C  C358  1  0.01491240  0.65523655  0.74661916  1
  C  C359  1  0.06849136  0.74678446  0.77109265  1
  C  C360  1  0.06812850  0.69073397  0.74849226  1
  C  C361  1  0.10045733  0.69882606  0.71702792  1
  C  C362  1  0.11872537  0.67596494  0.72460897  1
  C  C363  1  0.14401445  0.66997488  0.71325655  1
  C  C364  1  0.15209244  0.68615411  0.69355126  1
  C  C365  1  0.13285441  0.70889015  0.68620937  1
  C  C366  1  0.10760750  0.71496474  0.69745194  1
  C  C367  1  0.17799644  0.68031831  0.68051196  1
  C  C368  1  0.20002117  0.66157890  0.68627419  1
  C  C369  1  0.01573430  0.77034243  0.79128900  1
  C  C370  1  0.02057538  0.79067331  0.82837551  1
  C  C371  1  0.01347673  0.81857711  0.81903637  1
  C  C372  1  0.00669499  0.84168654  0.83330678  1
  C  C373  1  0.00738800  0.83806541  0.85732089  1
  C  C374  1  0.01650966  0.80999727  0.86631508  1
  C  C375  1  0.02308314  0.78670933  0.85199176  1
  C  C376  1  -0.00040399  0.86259224  0.87150024  1
  C  C377  1  0.00054943  0.86236375  0.89492717  1
  C  C378  1  0.38341305  0.81666797  0.30805004  1
  C  C379  1  0.36059052  0.83224303  0.31563516  1
  C  C380  1  0.35334842  0.86173562  0.30797430  1
  C  C381  1  0.32708914  0.87485906  0.31374269  1
  C  C382  1  0.32018975  0.90340665  0.30657432  1
  C  C383  1  0.33956640  0.91934194  0.29337715  1
  C  C384  1  0.36607163  0.90731322  0.28796224  1
  C  C385  1  0.37307704  0.87885348  0.29541954  1
  C  C386  1  0.30495055  0.95846155  0.28812818  1
  C  C387  1  0.30389437  0.98725308  0.27506597  1
  C  C388  1  0.31507187  0.01291121  0.28565983  1
  C  C389  1  0.31737493  0.03932033  0.27260698  1
  C  C390  1  0.30933295  0.03957990  0.24912650  1
  C  C391  1  0.30016821  0.01304124  0.23851737  1
  C  C392  1  0.29676470  0.98669919  0.25148650  1
  C  C393  1  0.28663839  0.95777393  0.24152152  1
  C  C394  1  0.32296698  0.01211785  0.31066321  1
  C  C395  1  0.31163440  0.06860554  0.23642454  1
  C  C396  1  0.32755189  0.06759423  0.28366266  1
  C  C397  1  0.36727008  0.10158478  0.28498342  1
  C  C398  1  0.35298437  0.11897715  0.30063126  1
  C  C399  1  0.36460745  0.14583292  0.30795632  1
  C  C400  1  0.39127403  0.15637886  0.30035259  1
  C  C401  1  0.40550953  0.13780655  0.28481267  1
  C  C402  1  0.39397227  0.11088027  0.27747152  1
  C  C403  1  0.40375930  0.18446460  0.30816911  1
  C  C404  1  0.39192182  0.20249964  0.32392428  1
  C  C405  1  0.29341310  0.01312363  0.21328820  1
  C  C406  1  0.25233751  0.01918985  0.18835146  1
  C  C407  1  0.26866974  0.01258628  0.16934811  1
  C  C408  1  0.25527445  0.00745310  0.14839243  1
  C  C409  1  0.22517742  0.00924801  0.14568295  1
  C  C410  1  0.20952716  0.01833895  0.16485547  1
  C  C411  1  0.22278137  0.02257374  0.18598156  1
  C  C412  1  0.20979430  0.00389437  0.12456794  1
  C  C413  1  0.18071300  -0.00084480  0.12459303  1
  C  C414  1  0.68846835  0.50440670  0.56670809  1
  C  C415  1  0.68883183  0.47680104  0.57863562  1
  C  C416  1  0.66600414  0.45735239  0.57245138  1
  C  C417  1  0.64314717  0.46612906  0.55813051  1
  C  C418  1  0.64212324  0.49472217  0.54803869  1
  C  C419  1  0.66751688  0.51142081  0.55038409  1
  C  C420  1  0.71097555  0.46966040  0.59468899  1
  C  C421  1  0.73082446  0.46406728  0.60827410  1
  C  C422  1  0.75266168  0.45790812  0.62292031  1
  C  C423  1  0.77276180  0.45210328  0.63621891  1
  C  C424  1  0.79625900  0.44488292  0.65084012  1
  C  C425  1  0.80072210  0.41584722  0.66034681  1
  C  C426  1  0.82468899  0.40838269  0.67352436  1
  C  C427  1  0.84647174  0.42937456  0.67862335  1
  C  C428  1  0.84073141  0.45891496  0.67112404  1
  C  C429  1  0.81717285  0.46624603  0.65749879  1
  C  C430  1  0.59256519  0.45355473  0.41571134  1
  C  C431  1  0.59162229  0.42291650  0.42187020  1
  C  C432  1  0.58509436  0.41417003  0.44456609  1
  C  C433  1  0.57845508  0.43551057  0.45987397  1
  C  C434  1  0.57204117  0.46434699  0.45148927  1
  C  C435  1  0.58275670  0.47441419  0.43060465  1
  C  C436  1  0.59808832  0.40044111  0.40684496  1
  C  C437  1  0.60503452  0.37985616  0.39477017  1
  C  C438  1  0.61353469  0.35720266  0.38229702  1
  C  C439  1  0.62171099  0.33650485  0.37084847  1
  C  C440  1  0.63246417  0.31368999  0.35780591  1
  C  C441  1  0.63094141  0.28371115  0.36545443  1
  C  C442  1  0.64257229  0.26155709  0.35284833  1
  C  C443  1  0.65681094  0.26856016  0.33250293  1
  C  C444  1  0.65706421  0.29821047  0.32424993  1
  C  C445  1  0.64507182  0.32037603  0.33656728  1
  C  C446  1  0.41005105  0.60574454  0.58582826  1
  C  C447  1  0.38130415  0.60041949  0.57864820  1
  C  C448  1  0.37842519  0.58838523  0.55639768  1
  C  C449  1  0.40187458  0.58080513  0.54336646  1
  C  C450  1  0.43022082  0.58532800  0.55113132  1
  C  C451  1  0.43333573  0.59906753  0.57247289  1
  C  C452  1  0.35787333  0.60707604  0.59268989  1
  C  C453  1  0.33808162  0.61350886  0.60526312  1
  C  C454  1  0.31648395  0.62078340  0.61895671  1
  C  C455  1  0.29661345  0.62764468  0.63132600  1
  C  C456  1  0.27316119  0.63589539  0.64474938  1
  C  C457  1  0.24428729  0.63340703  0.63670051  1
  C  C458  1  0.22116137  0.64244932  0.64925036  1
  C  C459  1  0.22436077  0.65376958  0.67164200  1
  C  C460  1  0.25291272  0.65517752  0.68011612  1
  C  C461  1  0.27615505  0.64726279  0.66723860  1
  C  C462  1  0.58984159  0.65881707  0.42946066  1
  C  C463  1  0.59555381  0.68698814  0.43927408  1
  C  C464  1  0.59321725  0.68786823  0.46340603  1
  C  C465  1  0.58477707  0.66327875  0.47641009  1
  C  C466  1  0.57805018  0.63596108  0.46616440  1
  C  C467  1  0.58129561  0.63463834  0.44235228  1
  C  C468  1  0.60321245  0.71143493  0.42525452  1
  C  C469  1  0.61005957  0.73168284  0.41214796  1
  C  C470  1  0.61777597  0.75356819  0.39772726  1
  C  C471  1  0.62506084  0.77366760  0.38463751  1
  C  C472  1  0.63412810  0.79714445  0.37032503  1
  C  C473  1  0.64264530  0.82528406  0.37914409  1
  C  C474  1  0.65238141  0.84821504  0.36545332  1
  C  C475  1  0.65430893  0.84544793  0.34143447  1
  C  C476  1  0.64455622  0.81801998  0.33245027  1
  C  C477  1  0.63541712  0.79482090  0.34617829  1
  C  C478  1  0.46496077  0.41312149  0.42714472  1
  C  C479  1  0.46089071  0.38425443  0.43658368  1
  C  C480  1  0.46492872  0.38232138  0.46068354  1
  C  C481  1  0.47413756  0.40642257  0.47386552  1
  C  C482  1  0.47938889  0.43451065  0.46393397  1
  C  C483  1  0.47317387  0.43709708  0.44032475  1
  C  C484  1  0.45301146  0.36038000  0.42214928  1
  C  C485  1  0.44606966  0.34096317  0.40842621  1
  C  C486  1  0.43832304  0.32004642  0.39323822  1
  C  C487  1  0.43109001  0.30072166  0.37952935  1
  C  C488  1  0.42248852  0.27735985  0.36494368  1
  C  C489  1  0.41538375  0.24890476  0.37402294  1
  C  C490  1  0.40637670  0.22573496  0.36038929  1
  C  C491  1  0.40467366  0.22810047  0.33636271  1
  C  C492  1  0.41198339  0.25614981  0.32700887  1
  C  C493  1  0.42004686  0.27984409  0.34072948  1
  C  C494  1  0.44133144  0.49364894  0.60953792  1
  C  C495  1  0.41610264  0.48162307  0.59926479  1
  C  C496  1  0.41621915  0.47127502  0.57645950  1
  C  C497  1  0.44037323  0.47450830  0.56406216  1
  C  C498  1  0.46280125  0.49194002  0.57312059  1
  C  C499  1  0.46499204  0.49767914  0.59667023  1
  C  C500  1  0.39171792  0.47875288  0.61199205  1
  C  C501  1  0.37151043  0.47324262  0.62408045  1
  C  C502  1  0.35054079  0.46527931  0.63761325  1
  C  C503  1  0.33131439  0.45744862  0.64996409  1
  C  C504  1  0.30926126  0.44755665  0.66337751  1
  C  C505  1  0.28629097  0.43196068  0.65267191  1
  C  C506  1  0.26450210  0.42170362  0.66552955  1
  C  C507  1  0.26410776  0.42783395  0.68918499  1
  C  C508  1  0.28675667  0.44383376  0.69976918  1
  C  C509  1  0.30946633  0.45269857  0.68720223  1
  C  C510  1  0.46634588  0.64962909  0.44230185  1
  C  C511  1  0.46665600  0.64289051  0.41865541  1
  C  C512  1  0.47317284  0.61360663  0.41153961  1
  C  C513  1  0.48251436  0.59284226  0.42738448  1
  C  C514  1  0.48590962  0.60161806  0.45024763  1
  C  C515  1  0.47330242  0.62796380  0.45797917  1
  C  C516  1  0.45926807  0.66525718  0.40310637  1
  C  C517  1  0.45049874  0.68490828  0.39018467  1
  C  C518  1  0.43945485  0.70616864  0.37677484  1
  C  C519  1  0.42919593  0.72569788  0.36445851  1
  C  C520  1  0.41735160  0.74780023  0.35046601  1
  C  C521  1  0.41274019  0.74265097  0.32678646  1
  C  C522  1  0.40298975  0.76505970  0.31268328  1
  C  C523  1  0.39550177  0.79295971  0.32181970  1
  C  C524  1  0.39825635  0.79740868  0.34574719  1
  C  C525  1  0.40963214  0.77566508  0.35969228  1
  C  C526  1  0.63237259  0.56727412  0.60765212  1
  C  C527  1  0.64507219  0.59464793  0.60093704  1
  C  C528  1  0.63067216  0.61335872  0.58468023  1
  C  C529  1  0.60646833  0.60332653  0.57353796  1
  C  C530  1  0.59736399  0.57403542  0.57778897  1
  C  C531  1  0.60704096  0.55880829  0.59771314  1
  C  C532  1  0.67070474  0.60290444  0.61142361  1
  C  C533  1  0.69177150  0.61074523  0.62247975  1
  C  C534  1  0.71351785  0.61961536  0.63564553  1
  C  C535  1  0.73321340  0.62823023  0.64788361  1
  C  C536  1  0.75545570  0.63915103  0.66141633  1
  C  C537  1  0.76494945  0.66885362  0.65785166  1
  C  C538  1  0.78778974  0.67954456  0.67009541  1
  C  C539  1  0.80229995  0.66132435  0.68659687  1
  C  C540  1  0.79185594  0.63213419  0.69094051  1
  C  C541  1  0.76883393  0.62144704  0.67878544  1
  C  C542  1  0.96810108  0.04366508  0.04644619  1
  C  C543  1  0.94931104  0.06606379  0.03888952  1
  C  C544  1  0.92518326  0.07198888  0.05134045  1
  C  C545  1  0.91953899  0.05657544  0.07193849  1
  C  C546  1  0.94048119  0.03595576  0.08016793  1
  C  C547  1  0.96394722  0.02905180  0.06722990  1
  C  C548  1  0.89389637  0.06252507  0.08423289  1
  C  C549  1  0.88847125  0.05039122  0.10526736  1
  C  C550  1  0.03357622  0.09183595  0.95746826  1
  C  C551  1  0.03221657  0.08822608  0.93385669  1
  C  C552  1  0.03668229  0.11241770  0.91959082  1
  C  C553  1  0.04106699  0.14135860  0.92833475  1
  C  C554  1  0.04241816  0.14434166  0.95236064  1
  C  C555  1  0.03837455  0.11990799  0.96674144  1
  C  C556  1  0.04398049  0.16532864  0.91190364  1
  C  C557  1  0.05140862  0.19460173  0.91514115  1
  C  C558  1  0.08094757  0.02343433  0.04774245  1
  C  C559  1  0.10397747  0.01130459  0.03621664  1
  C  C560  1  0.12896861  0.00413741  0.04829215  1
  C  C561  1  0.13194662  0.00924848  0.07209236  1
  C  C562  1  0.10753134  0.01978784  0.08337779  1
  C  C563  1  0.08292726  0.02791211  0.07120312  1
  C  C564  1  0.15798349  0.00350496  0.08507012  1
  C  C565  1  0.15963264  0.00915229  0.10809771  1
  C  C566  1  0.02627525  0.97569003  0.96117360  1
  C  C567  1  0.04897772  0.95570423  0.96047891  1
  C  C568  1  0.04534092  0.92915632  0.94909059  1
  C  C569  1  0.01984538  0.92315907  0.93653429  1
  C  C570  1  0.99787646  0.94495305  0.93629319  1
  C  C571  1  0.00102926  0.97097294  0.94858048  1
  C  C572  1  0.01743523  0.89547585  0.92457361  1
  C  C573  1  0.99755107  0.88878197  0.90785919  1
  O  O574  1  0.02612711  0.06734666  0.97020393  1
  O  O575  1  0.03153952  0.00091625  0.97343300  1
  O  O576  1  0.99054207  0.03405685  0.03410486  1
  O  O577  1  0.05638763  0.03337252  0.03705452  1
  O  O578  1  -0.00253841  0.36838253  0.72857868  1
  O  O579  1  0.07616889  0.29366624  0.80569826  1
  O  O580  1  0.11858532  0.38801491  0.73907897  1
  O  O581  1  0.72602557  0.98893298  0.28161356  1
  O  O582  1  0.73157236  0.13459619  0.27245999  1
  O  O583  1  0.77544415  0.05180914  0.20017818  1
  O  O584  1  0.95187854  0.68995733  0.74359320  1
  O  O585  1  0.02575979  0.76700446  0.81488131  1
  O  O586  1  0.07575696  0.70644427  0.72746151  1
  O  O587  1  0.33402482  0.94734404  0.28576853  1
  O  O588  1  0.26425169  0.02361814  0.20941518  1
  O  O589  1  0.35631605  0.07567564  0.27665452  1
