# generated using pymatgen
data_Co3H164C177O22
_symmetry_space_group_name_H-M   'P 1'
_cell_length_a   57.40807833
_cell_length_b   57.02146196
_cell_length_c   30.20596522
_cell_angle_alpha   88.87178913
_cell_angle_beta   91.49701453
_cell_angle_gamma   127.47956064
_symmetry_Int_Tables_number   1
_chemical_formula_structural   Co3H164C177O22
_chemical_formula_sum   'Co3 H164 C177 O22'
_cell_volume   78439.77620438
_cell_formula_units_Z   1
loop_
 _symmetry_equiv_pos_site_id
 _symmetry_equiv_pos_as_xyz
  1  'x, y, z'
loop_
 _atom_site_type_symbol
 _atom_site_label
 _atom_site_symmetry_multiplicity
 _atom_site_fract_x
 _atom_site_fract_y
 _atom_site_fract_z
 _atom_site_occupancy
  Co  Co0  1  0.70160076  0.37047430  0.43856350  1
  Co  Co1  1  0.70151460  0.37552810  0.56318718  1
  Co  Co2  1  0.65527291  0.36534962  0.49524042  1
  H  H3  1  0.97703233  0.01315658  -0.00430130  1
  H  H4  1  0.00059624  0.04608585  0.04766263  1
  H  H5  1  0.02713841  0.04765186  0.96075235  1
  H  H6  1  0.07271462  0.08411605  0.01630052  1
  H  H7  1  0.05260260  0.05578382  0.05568898  1
  H  H8  1  0.87447869  0.34839342  0.72398028  1
  H  H9  1  0.80886623  0.29562341  0.73793203  1
  H  H10  1  0.79837236  0.26419081  0.80004270  1
  H  H11  1  0.81350757  0.25118954  0.86696769  1
  H  H12  1  0.90328592  0.32774394  0.84802173  1
  H  H13  1  0.88853186  0.34120323  0.78103384  1
  H  H14  1  0.83502391  0.23939622  0.91255474  1
  H  H15  1  0.83133428  0.26490663  0.93729107  1
  H  H16  1  0.86014110  0.30809629  0.03467404  1
  H  H17  1  0.82965483  0.27702846  0.00711293  1
  H  H18  1  0.85883616  0.30701388  0.97618193  1
  H  H19  1  0.86700054  0.23671301  0.89689325  1
  H  H20  1  0.85461573  0.20633045  0.93259664  1
  H  H21  1  0.89215141  0.23153292  0.91885605  1
  H  H22  1  0.92350733  0.28443406  0.10359096  1
  H  H23  1  0.94182457  0.27905297  0.06324971  1
  H  H24  1  0.91114772  0.24850905  0.09085030  1
  H  H25  1  0.90933832  0.22628129  0.03209187  1
  H  H26  1  0.90008989  0.21959732  0.97475516  1
  H  H27  1  0.92080523  0.20282229  0.99532081  1
  H  H28  1  0.95099814  0.18649168  -0.00767788  1
  H  H29  1  0.02890290  0.27746515  0.97942931  1
  H  H30  1  0.99716443  0.29342743  0.97634548  1
  H  H31  1  0.03320607  0.23460612  0.98636249  1
  H  H32  1  0.97460056  0.17709491  0.01801781  1
  H  H33  1  0.91718971  0.31402066  0.09169923  1
  H  H34  1  0.89075359  0.31865438  0.07348373  1
  H  H35  1  0.91495757  0.34083900  0.13714805  1
  H  H36  1  0.91002133  0.36541406  0.19797309  1
  H  H37  1  0.83165412  0.28115352  0.24034218  1
  H  H38  1  0.83592692  0.25696796  0.17757864  1
  H  H39  1  0.88547905  0.36450680  0.26140589  1
  H  H40  1  0.82297784  0.30633243  0.27590197  1
  H  H41  1  0.47329697  0.15852794  0.30374817  1
  H  H42  1  0.49999120  0.13196563  0.26290879  1
  H  H43  1  0.46558823  0.09094371  0.20931466  1
  H  H44  1  0.43459837  0.07565809  0.14239109  1
  H  H45  1  0.43167478  0.14900589  0.15714953  1
  H  H46  1  0.46354672  0.16497098  0.22412667  1
  H  H47  1  0.39555019  0.06066426  0.09541969  1
  H  H48  1  0.42964058  0.08677866  0.06974354  1
  H  H49  1  0.45154483  0.12983644  0.97194751  1
  H  H50  1  0.44574595  0.09896244  0.99853226  1
  H  H51  1  0.45161627  0.12798696  0.03028682  1
  H  H52  1  0.35857104  0.05545774  0.11001870  1
  H  H53  1  0.33522613  0.02509372  0.07414536  1
  H  H54  1  0.32664689  0.04910767  0.08751437  1
  H  H55  1  0.35851793  0.10219039  0.90258399  1
  H  H56  1  0.33306227  0.09555580  0.94271194  1
  H  H57  1  0.32810338  0.06578172  0.91499917  1
  H  H58  1  0.30303512  0.04200808  0.97285872  1
  H  H59  1  0.30336251  0.03444613  0.02998714  1
  H  H60  1  0.25829807  0.01709892  0.00620928  1
  H  H61  1  0.20897682  0.00388237  0.00385747  1
  H  H62  1  0.24584537  0.09508164  0.02729993  1
  H  H63  1  0.29578730  0.10836830  0.02911895  1
  H  H64  1  0.19526695  0.06167441  0.01792343  1
  H  H65  1  0.16439604  0.99534372  0.99919667  1
  H  H66  1  0.39974545  0.13065790  0.91196346  1
  H  H67  1  0.43247071  0.13729081  0.93147983  1
  H  H68  1  0.43406729  0.15850211  0.87053489  1
  H  H69  1  0.46930100  0.18589595  0.81112517  1
  H  H70  1  0.45203594  0.10535985  0.76493361  1
  H  H71  1  0.41750280  0.07802509  0.82645350  1
  H  H72  1  0.48346418  0.18681903  0.74366277  1
  H  H73  1  0.49799135  0.14634749  0.71166751  1
  H  H74  1  0.63894628  0.52524785  0.72436631  1
  H  H75  1  0.69909003  0.54079536  0.74963916  1
  H  H76  1  0.72560865  0.56683408  0.80802093  1
  H  H77  1  0.73774602  0.59865953  0.87158495  1
  H  H78  1  0.66218910  0.59585340  0.84155059  1
  H  H79  1  0.64988955  0.56383705  0.77703939  1
  H  H80  1  0.74912199  0.63388339  0.91170665  1
  H  H81  1  0.72357180  0.59944784  0.93810360  1
  H  H82  1  0.68158574  0.57674302  0.03469571  1
  H  H83  1  0.71166231  0.58282096  0.00770574  1
  H  H84  1  0.68216387  0.57704628  0.97619826  1
  H  H85  1  0.75627962  0.67131402  0.89609873  1
  H  H86  1  0.78624721  0.69328166  0.93344553  1
  H  H87  1  0.76396133  0.70385189  0.91713021  1
  H  H88  1  0.71083968  0.67100925  0.10101397  1
  H  H89  1  0.71796449  0.69747821  0.06026695  1
  H  H90  1  0.74722558  0.70081466  0.08816827  1
  H  H91  1  0.77099462  0.72577234  0.03022542  1
  H  H92  1  0.77585818  0.72528988  0.97242673  1
  H  H93  1  0.79732265  0.76642859  0.99522306  1
  H  H94  1  0.81954231  0.81863456  0.98679388  1
  H  H95  1  0.73356929  0.79818905  0.97839203  1
  H  H96  1  0.71127028  0.74483723  0.97592990  1
  H  H97  1  0.78402108  0.85455800  0.98127764  1
  H  H98  1  0.82856404  0.84996643  0.03141257  1
  H  H99  1  0.67833718  0.62845568  0.08839378  1
  H  H100  1  0.67247113  0.59562202  0.07210193  1
  H  H101  1  0.65092836  0.59305651  0.13727668  1
  H  H102  1  0.62694688  0.55786661  0.19910357  1
  H  H103  1  0.71002125  0.57686144  0.23765061  1
  H  H104  1  0.73392692  0.61307795  0.17681210  1
  H  H105  1  0.62756223  0.52848918  0.25821209  1
  H  H106  1  0.68928198  0.55088851  0.29168728  1
  H  H107  1  0.85778111  0.35653855  0.65535794  1
  H  H108  1  0.79481574  0.31347059  0.69074585  1
  H  H109  1  0.82040204  0.37219539  0.64936962  1
  H  H110  1  0.81293444  0.34746825  0.60743354  1
  H  H111  1  0.72096229  0.32059268  0.62090048  1
  H  H112  1  0.78422747  0.37345402  0.59632329  1
  H  H113  1  0.76000680  0.31266270  0.63019826  1
  H  H114  1  0.76738377  0.33569078  0.67485617  1
  H  H115  1  0.53211771  0.20299230  0.26685688  1
  H  H116  1  0.52680913  0.18663407  0.36584208  1
  H  H117  1  0.57798204  0.23419846  0.31559497  1
  H  H118  1  0.55735312  0.24687529  0.32551996  1
  H  H119  1  0.62064939  0.27833987  0.44838882  1
  H  H120  1  0.60806316  0.28815153  0.35240589  1
  H  H121  1  0.56169915  0.24074840  0.40863786  1
  H  H122  1  0.58423647  0.23039646  0.39766034  1
  H  H123  1  0.53387342  0.21344374  0.72835956  1
  H  H124  1  0.54476833  0.18582679  0.65312402  1
  H  H125  1  0.54020873  0.22878900  0.62403459  1
  H  H126  1  0.56045203  0.24717269  0.67245699  1
  H  H127  1  0.63142148  0.28357336  0.56515082  1
  H  H128  1  0.58835267  0.28702199  0.61861739  1
  H  H129  1  0.60221400  0.24723255  0.64380572  1
  H  H130  1  0.58238491  0.23251951  0.59361155  1
  H  H131  1  0.62834360  0.49397824  0.31612808  1
  H  H132  1  0.68953741  0.50857226  0.31137813  1
  H  H133  1  0.65316844  0.48034688  0.39106262  1
  H  H134  1  0.63691603  0.45357760  0.34903419  1
  H  H135  1  0.71521685  0.45406375  0.39470042  1
  H  H136  1  0.65381899  0.43389945  0.41989440  1
  H  H137  1  0.68657447  0.46452235  0.33652858  1
  H  H138  1  0.70192160  0.49042416  0.37959675  1
  H  H139  1  0.68197722  0.53816829  0.65749733  1
  H  H140  1  0.63934048  0.47323928  0.68857826  1
  H  H141  1  0.68292365  0.50094810  0.61392167  1
  H  H142  1  0.69852127  0.49894520  0.66329345  1
  H  H143  1  0.64566002  0.40657107  0.59880828  1
  H  H144  1  0.70617606  0.46747371  0.61000509  1
  H  H145  1  0.65764429  0.44410159  0.66857581  1
  H  H146  1  0.64296243  0.44543154  0.61760059  1
  H  H147  1  0.85967718  0.36283799  0.33269642  1
  H  H148  1  0.79530286  0.32591215  0.29994306  1
  H  H149  1  0.80746815  0.33488246  0.39456924  1
  H  H150  1  0.82334176  0.37054189  0.37368915  1
  H  H151  1  0.72040265  0.31284573  0.39523648  1
  H  H152  1  0.78297423  0.36367563  0.42646406  1
  H  H153  1  0.77520246  0.35154270  0.33478287  1
  H  H154  1  0.75920207  0.31589452  0.35594910  1
  H  H155  1  0.96474986  0.10157589  -0.00053090  1
  H  H156  1  0.96265643  0.05762072  0.00783375  1
  H  H157  1  0.05705985  0.11227335  -0.00461134  1
  H  H158  1  0.05905905  0.15660064  -0.00343840  1
  H  H159  1  0.14155098  0.07066770  -0.00198095  1
  H  H160  1  0.11281659  0.08952059  0.00029091  1
  H  H161  1  0.03267702  1.00042000  0.00090633  1
  H  H162  1  0.06142878  0.98143461  -0.00175780  1
  H  H163  1  0.88379207  0.96779411  -0.00146640  1
  H  H164  1  0.93463683  0.01481366  -0.00397735  1
  H  H165  1  0.96916559  0.96539660  0.00236931  1
  H  H166  1  0.91802763  0.91832655  0.00031286  1
  C  C167  1  1.01054637  0.05656303  0.01557682  1
  C  C168  1  0.02885907  0.05185484  0.99640380  1
  C  C169  1  0.05608257  0.05974332  0.01956553  1
  C  C170  1  0.85084612  0.33414802  0.71734735  1
  C  C171  1  0.83235525  0.31079355  0.74543056  1
  C  C172  1  0.84189768  0.30373791  0.78474574  1
  C  C173  1  0.82139454  0.27842543  0.81053892  1
  C  C174  1  0.82984247  0.27123233  0.84865635  1
  C  C175  1  0.85929068  0.28947349  0.86254449  1
  C  C176  1  0.88028932  0.31413883  0.83732768  1
  C  C177  1  0.87177393  0.32141521  0.79933606  1
  C  C178  1  0.84722628  0.26082085  0.92965589  1
  C  C179  1  0.86387592  0.26174755  0.96955839  1
  C  C180  1  0.87762806  0.24809206  0.96663182  1
  C  C181  1  0.89524028  0.25085907  1.00264638  1
  C  C182  1  0.90036421  0.26806342  0.04009992  1
  C  C183  1  0.88755111  0.28275053  0.04132878  1
  C  C184  1  0.86866209  0.27918711  0.00657215  1
  C  C185  1  0.85374975  0.29356712  0.00631361  1
  C  C186  1  0.87268880  0.22995221  0.92692663  1
  C  C187  1  0.92012638  0.27031077  0.07622795  1
  C  C188  1  0.91017650  0.23670529  1.00040285  1
  C  C189  1  0.95734532  0.24945042  0.98802490  1
  C  C190  1  0.94448371  0.21941192  0.99232250  1
  C  C191  1  0.96189829  0.21019768  0.99209181  1
  C  C192  1  0.99287074  0.23083488  0.98954665  1
  C  C193  1  0.00523445  0.26115051  0.98307772  1
  C  C194  1  0.98762520  0.27023097  0.98171679  1
  C  C195  1  0.00963993  0.21989235  0.99204163  1
  C  C196  1  0.99622402  0.19054776  0.00266271  1
  C  C197  1  0.89414594  0.30193007  0.08050311  1
  C  C198  1  0.87443122  0.29759505  0.15174087  1
  C  C199  1  0.89600046  0.32790557  0.15856143  1
  C  C200  1  0.89356638  0.34165170  0.19352065  1
  C  C201  1  0.86973061  0.32577550  0.22290809  1
  C  C202  1  0.84936298  0.29464596  0.21699481  1
  C  C203  1  0.85182494  0.28081072  0.18204263  1
  C  C204  1  0.86703198  0.34113917  0.25744028  1
  C  C205  1  0.84238334  0.32906901  0.28233802  1
  C  C206  1  0.49217543  0.16158566  0.28869758  1
  C  C207  1  0.48725268  0.14037346  0.25990156  1
  C  C208  1  0.46700307  0.12918817  0.22264228  1
  C  C209  1  0.45860332  0.10409847  0.19792394  1
  C  C210  1  0.44107729  0.09542140  0.15990796  1
  C  C211  1  0.43175075  0.11191480  0.14479981  1
  C  C212  1  0.43921322  0.13641433  0.16889303  1
  C  C213  1  0.45677550  0.14506444  0.20684595  1
  C  C214  1  0.40863165  0.08214178  0.07804418  1
  C  C215  1  0.39235838  0.08218929  0.03806672  1
  C  C216  1  0.36169211  0.06703997  0.04028337  1
  C  C217  1  0.34662482  0.06827814  0.00369575  1
  C  C218  1  0.36217061  0.08577483  0.96607255  1
  C  C219  1  0.39287027  0.10106673  0.96458873  1
  C  C220  1  0.40817837  0.09918455  1.00022486  1
  C  C221  1  0.44072960  0.11477640  1.00010100  1
  C  C222  1  0.34485550  0.04846743  0.07991948  1
  C  C223  1  0.34487812  0.08757514  0.92981347  1
  C  C224  1  0.31392653  0.05219130  0.00496468  1
  C  C225  1  0.28036946  0.06395930  0.01580342  1
  C  C226  1  0.25582747  0.03448208  0.00975743  1
  C  C227  1  0.22775370  0.02696158  0.00883657  1
  C  C228  1  0.22329722  0.04864427  0.01427641  1
  C  C229  1  0.24863936  0.07807730  0.02220822  1
  C  C230  1  0.27660821  0.08560803  0.02309991  1
  C  C231  1  0.19500599  0.04266255  0.01245669  1
  C  C232  1  0.16759883  0.01603533  0.00423133  1
  C  C233  1  0.40909397  0.11966621  0.92449422  1
  C  C234  1  0.42500766  0.11674285  0.85409767  1
  C  C235  1  0.43861798  0.14685709  0.84856554  1
  C  C236  1  0.45767648  0.16212263  0.81391744  1
  C  C237  1  0.46324547  0.14810115  0.78249861  1
  C  C238  1  0.44855973  0.11731915  0.78815756  1
  C  C239  1  0.42927928  0.10182108  0.82305328  1
  C  C240  1  0.48261999  0.16715321  0.74680921  1
  C  C241  1  0.50210676  0.16693382  0.72144782  1
  C  C242  1  0.66005744  0.52964065  0.71938238  1
  C  C243  1  0.68172508  0.54333003  0.75135963  1
  C  C244  1  0.68624911  0.56166192  0.78835996  1
  C  C245  1  0.71127256  0.57264261  0.81575779  1
  C  C246  1  0.71798648  0.59040882  0.85191413  1
  C  C247  1  0.69969149  0.59792623  0.86199236  1
  C  C248  1  0.67559668  0.58880500  0.83433212  1
  C  C249  1  0.66879898  0.57078146  0.79804539  1
  C  C250  1  0.72801201  0.62060007  0.92892161  1
  C  C251  1  0.72835337  0.63674451  0.96791751  1
  C  C252  1  0.74409279  0.66767219  0.96486818  1
  C  C253  1  0.74268570  0.68248289  1.00034555  1
  C  C254  1  0.72538810  0.66681792  0.03779645  1
  C  C255  1  0.70902297  0.63573271  0.03953493  1
  C  C256  1  0.71120520  0.62057340  0.00537404  1
  C  C257  1  0.69586579  0.58782283  0.00621907  1
  C  C258  1  0.76339653  0.68475657  0.92607457  1
  C  C259  1  0.72512396  0.68461031  0.07357797  1
  C  C260  1  0.75941408  0.71534972  0.99855610  1
  C  C261  1  0.75257794  0.75217009  0.98735056  1
  C  C262  1  0.78308923  0.77299986  0.99106217  1
  C  C263  1  0.79576341  0.80276077  0.98917896  1
  C  C264  1  0.77838655  0.81279564  0.98745812  1
  C  C265  1  0.74751400  0.79122384  0.98160889  1
  C  C266  1  0.73491268  0.76132295  0.98085616  1
  C  C267  1  0.79407907  0.84397263  0.99069615  1
  C  C268  1  0.82251745  0.86039315  1.00785805  1
  C  C269  1  0.68964559  0.61922548  0.07862981  1
  C  C270  1  0.69358894  0.60343451  0.15106186  1
  C  C271  1  0.66370240  0.58882705  0.15844500  1
  C  C272  1  0.65027171  0.56925652  0.19378664  1
  C  C273  1  0.66601135  0.56333618  0.22270663  1
  C  C274  1  0.69671167  0.58007285  0.21596856  1
  C  C275  1  0.71032700  0.60030360  0.18136972  1
  C  C276  1  0.65135542  0.54092545  0.25689251  1
  C  C277  1  0.66560800  0.53442608  0.28598918  1
  C  C278  1  0.72648369  0.34915434  0.43023598  1
  C  C279  1  0.68624561  0.41160650  0.42740394  1
  C  C280  1  0.63989707  0.32326781  0.42516209  1
  C  C281  1  0.63957483  0.32619324  0.57190459  1
  C  C282  1  0.72711141  0.35516900  0.57899378  1
  C  C283  1  0.68099763  0.41032082  0.56914973  1
  C  C284  1  0.84106591  0.34146665  0.67948004  1
  C  C285  1  0.81300432  0.33269023  0.67290702  1
  C  C286  1  0.80638848  0.34833644  0.64121474  1
  C  C287  1  0.73849578  0.34168798  0.60544164  1
  C  C288  1  0.76675107  0.35261995  0.61187557  1
  C  C289  1  0.77408433  0.33613209  0.64050870  1
  C  C290  1  0.52075851  0.18915108  0.29628011  1
  C  C291  1  0.53458037  0.20089441  0.33648899  1
  C  C292  1  0.56217817  0.23199232  0.33905343  1
  C  C293  1  0.62072223  0.29039200  0.41945843  1
  C  C294  1  0.60373051  0.27596887  0.38333126  1
  C  C295  1  0.57759128  0.24380496  0.38450759  1
  C  C296  1  0.52792688  0.19494578  0.70732099  1
  C  C297  1  0.54352319  0.20204080  0.66922468  1
  C  C298  1  0.55700750  0.23151933  0.64722789  1
  C  C299  1  0.62260238  0.29368758  0.58143323  1
  C  C300  1  0.59853842  0.27727536  0.60675108  1
  C  C301  1  0.58587082  0.24634358  0.62193743  1
  C  C302  1  0.65203596  0.50749622  0.31038116  1
  C  C303  1  0.66796257  0.49815467  0.32579244  1
  C  C304  1  0.65795234  0.47449513  0.35962827  1
  C  C305  1  0.69273378  0.43885596  0.40673964  1
  C  C306  1  0.67384876  0.44547243  0.40070389  1
  C  C307  1  0.68113523  0.46934479  0.36838972  1
  C  C308  1  0.66576074  0.52004425  0.67959859  1
  C  C309  1  0.65832088  0.49255628  0.67192590  1
  C  C310  1  0.67720462  0.48850334  0.64541813  1
  C  C311  1  0.66961063  0.42292110  0.59626546  1
  C  C312  1  0.68256878  0.45025198  0.61275268  1
  C  C313  1  0.66388976  0.45611029  0.63643361  1
  C  C314  1  0.83966921  0.34489124  0.31516448  1
  C  C315  1  0.81303583  0.33846831  0.32464590  1
  C  C316  1  0.80645018  0.34687226  0.36612903  1
  C  C317  1  0.73779957  0.33476629  0.40875388  1
  C  C318  1  0.76636117  0.34701008  0.40322404  1
  C  C319  1  0.77589202  0.33958673  0.36366052  1
  C  C320  1  0.01220165  0.13248689  -0.00157930  1
  C  C321  1  0.98499922  0.10373256  0.00035932  1
  C  C322  1  0.98395653  0.07906881  0.00480652  1
  C  C323  1  0.00991428  0.08117676  0.00397931  1
  C  C324  1  0.03668012  0.10968278  -0.00279260  1
  C  C325  1  0.03799386  0.13465026  -0.00298178  1
  C  C326  1  0.01289187  0.15765026  -0.00198870  1
  C  C327  1  0.00920071  0.17671291  -0.00123929  1
  C  C328  1  0.10365389  0.02441350  -0.00034529  1
  C  C329  1  0.11764061  0.05523562  -0.00104374  1
  C  C330  1  0.10154163  0.06577354  0.00078554  1
  C  C331  1  0.07090390  0.04662863  0.00451316  1
  C  C332  1  0.05657824  0.01602403  0.00112465  1
  C  C333  1  0.07260439  0.00517426  -0.00090473  1
  C  C334  1  0.12116027  0.01462525  0.00033958  1
  C  C335  1  0.14268521  0.01471485  0.00211697  1
  C  C336  1  0.89775856  0.94031889  -0.00198947  1
  C  C337  1  0.90273130  0.96770552  -0.00178775  1
  C  C338  1  0.93101633  -0.00624600  -0.00222408  1
  C  C339  1  0.95484003  0.99276052  -0.00187004  1
  C  C340  1  0.95038749  0.96572391  0.00053655  1
  C  C341  1  0.92204214  0.93963783  -0.00030249  1
  C  C342  1  0.86856143  0.91411242  -0.00223955  1
  C  C343  1  0.84429829  0.88996536  -0.00042192  1
  O  O344  1  0.86909551  0.28400555  0.89975322  1
  O  O345  1  0.87502234  0.28333855  0.11670298  1
  O  O346  1  0.94095370  0.25927747  0.98957487  1
  O  O347  1  0.41456546  0.10508828  0.10798149  1
  O  O348  1  0.40733395  0.10147008  0.88917606  1
  O  O349  1  0.30860515  0.07339422  0.01573149  1
  O  O350  1  0.70487627  0.61450760  0.89805048  1
  O  O351  1  0.70773990  0.62171818  0.11576846  1
  O  O352  1  0.73943417  0.72271192  0.98926817  1
  O  O353  1  0.63031298  0.33229785  0.45298026  1
  O  O354  1  0.66351737  0.33983500  0.40393662  1
  O  O355  1  0.74024803  0.37713902  0.42565693  1
  O  O356  1  0.70161313  0.33333703  0.44881179  1
  O  O357  1  0.70546803  0.40721595  0.42346573  1
  O  O358  1  0.66173013  0.39426094  0.44696902  1
  O  O359  1  0.62939880  0.33392152  0.54151469  1
  O  O360  1  0.66311503  0.34426609  0.59405113  1
  O  O361  1  0.74019857  0.38316035  0.58084748  1
  O  O362  1  0.70269362  0.33830947  0.55840914  1
  O  O363  1  0.70308356  0.41152953  0.58091743  1
  O  O364  1  0.66480137  0.39697869  0.53452680  1
  O  O365  1  0.68808330  0.36932493  0.49943791  1
